* TLC339 VOLTAGE COMPARATOR "MACROMODEL" SUBCIRCUIT
* CREATED USING PARTS VERSION 4.03 ON 03/13/90 AT 12:28
* REV (N/A)
* ------------------------------------------------------------------------
*|(C) Copyright Texas Instruments Incorporated 2007. All rights reserved. |
*|                                                                        |
*|This Model is designed as an aid for customers of Texas Instruments.    |
*|No warranties, either expressed or implied, with respect to this Model  |
*|or its fitness for a particular purpose is claimed by Texas Instruments |
*|or the author.  The Model is licensed solely on an "as is" basis.  The  |
*|entire risk as to its quality and performance is with the customer.     |
* ------------------------------------------------------------------------
* CONNECTIONS:   NON-INVERTING INPUT
*                | INVERTING INPUT
*                | | POSITIVE POWER SUPPLY
*                | | | NEGATIVE POWER SUPPLY
*                | | | | OPEN COLLECTOR OUTPUT
*                | | | | |
.SUBCKT TLC339   1 2 3 4 5
*
  F1    9  3 V1 1
  IEE   3  7 DC 100.0E-6
  VI1  21  1 DC .75
  VI2  22  2 DC .75
  Q1    9 21  7 QIN
  Q2    8 22  7 QIN
  Q3    9  8  4 QMO
  Q4    8  8  4 QMI
.MODEL QIN PNP(IS=800.0E-18 BF=10.00E6)
.MODEL QMI NPN(IS=800.0E-18 BF=1002)
.MODEL QMO NPN(IS=800.0E-18 BF=1000 CJC=1E-15 TR=1.304E-6)
  E1   10  4  9  4  1
  V1   10 11 DC 0
  Q5    5 11  4 QOC
.MODEL QOC NPN(IS=800.0E-18 BF=324.6 CJC=1E-15 TF=780.9E-12 TR=1.047E-6)
  DP    4  3 DX
  RP 3  4 -71E3
.MODEL DX  D(IS=800.0E-18)
*
.ENDS
* TLC352 VOLTAGE COMPARATOR "MACROMODEL" SUBCIRCUIT
* CREATED USING PARTS VERSION 4.03 ON 03/15/90 AT 16:15
* REV (N/A)
* ------------------------------------------------------------------------
*|(C) Copyright Texas Instruments Incorporated 2007. All rights reserved. |
*|                                                                        |
*|This Model is designed as an aid for customers of Texas Instruments.    |
*|No warranties, either expressed or implied, with respect to this Model  |
*|or its fitness for a particular purpose is claimed by Texas Instruments |
*|or the author.  The Model is licensed solely on an "as is" basis.  The  |
*|entire risk as to its quality and performance is with the customer.     |
* ------------------------------------------------------------------------
* CONNECTIONS:   NON-INVERTING INPUT
*                | INVERTING INPUT
*                | | POSITIVE POWER SUPPLY
*                | | | NEGATIVE POWER SUPPLY
*                | | | | OPEN COLLECTOR OUTPUT
*                | | | | |
.SUBCKT TLC352   1 2 3 4 5
*
  F1    9  3 V1 1
  IEE   3  7 DC 100.0E-6
  VI1  21  1 DC .75
  VI2  22  2 DC .75
  Q1    9 21  7 QIN
  Q2    8 22  7 QIN
  Q3    9  8  4 QMO
  Q4    8  8  4 QMI
.MODEL QIN PNP(IS=800.0E-18 BF=10.00E6)
.MODEL QMI NPN(IS=800.0E-18 BF=1002)
.MODEL QMO NPN(IS=800.0E-18 BF=1000 CJC=1E-15 TR=403.7E-9)
  E1   10  4  9  4  1
  V1   10 11 DC 0
  Q5    5 11  4 QOC
.MODEL QOC NPN(IS=800.0E-18 BF=507.1 CJC=1E-15 TF=842.6E-12 TR=271.4E-9)
  DP    4  3 DX
  RP 3  4 -105E3
.MODEL DX  D(IS=800.0E-18)
*
.ENDS
* TLC354 VOLTAGE COMPARATOR "MACROMODEL" SUBCIRCUIT
* CREATED USING PARTS VERSION 4.03 ON 03/15/90 AT 16:15
* REV (N/A)
* ------------------------------------------------------------------------
*|(C) Copyright Texas Instruments Incorporated 2007. All rights reserved. |
*|                                                                        |
*|This Model is designed as an aid for customers of Texas Instruments.    |
*|No warranties, either expressed or implied, with respect to this Model  |
*|or its fitness for a particular purpose is claimed by Texas Instruments |
*|or the author.  The Model is licensed solely on an "as is" basis.  The  |
*|entire risk as to its quality and performance is with the customer.     |
* ------------------------------------------------------------------------
* CONNECTIONS:   NON-INVERTING INPUT
*                | INVERTING INPUT
*                | | POSITIVE POWER SUPPLY
*                | | | NEGATIVE POWER SUPPLY
*                | | | | OPEN COLLECTOR OUTPUT
*                | | | | |
.SUBCKT TLC354   1 2 3 4 5
*
  F1    9  3 V1 1
  IEE   3  7 DC 100.0E-6
  VI1  21  1 DC .75
  VI2  22  2 DC .75
  Q1    9 21  7 QIN
  Q2    8 22  7 QIN
  Q3    9  8  4 QMO
  Q4    8  8  4 QMI
.MODEL QIN PNP(IS=800.0E-18 BF=10.00E6)
.MODEL QMI NPN(IS=800.0E-18 BF=1002)
.MODEL QMO NPN(IS=800.0E-18 BF=1000 CJC=1E-15 TR=403.7E-9)
  E1   10  4  9  4  1
  V1   10 11 DC 0
  Q5    5 11  4 QOC
.MODEL QOC NPN(IS=800.0E-18 BF=507.1 CJC=1E-15 TF=842.6E-12 TR=271.4E-9)
  DP    4  3 DX
  RP 3  4 -105E3
.MODEL DX  D(IS=800.0E-18)
*
.ENDS
* TLC3702 VOLTAGE COMPARATOR "MACROMODEL" SUBCIRCUIT
* CREATED USING PARTS VERSION 4.03 ON 03/14/90 AT 10:09
* REV (N/A)
* ------------------------------------------------------------------------
*|(C) Copyright Texas Instruments Incorporated 2007. All rights reserved. |
*|                                                                        |
*|This Model is designed as an aid for customers of Texas Instruments.    |
*|No warranties, either expressed or implied, with respect to this Model  |
*|or its fitness for a particular purpose is claimed by Texas Instruments |
*|or the author.  The Model is licensed solely on an "as is" basis.  The  |
*|entire risk as to its quality and performance is with the customer.     |
* ------------------------------------------------------------------------
* NOTE: COMPONENTS ADDED TO SIMULATE ACTIVE PULL-UP
* CONNECTIONS:   NON-INVERTING INPUT
*                | INVERTING INPUT
*                | | POSITIVE POWER SUPPLY
*                | | | NEGATIVE POWER SUPPLY
*                | | | | OUTPUT
*                | | | | |
.SUBCKT TLC3702  1 2 3 4 5
*
  F1    9  3 V1 1
  FOUT 30 5 POLY(1) (V1) 4E-3 -40         ;THESE COMPONENTS
  EO1 30 0 POLY(1) (3,0) -.75 1           ;ADDED TO SIMULATE
  DO1 5  30  DX                           ;ACTIVE PULL-UP
  IEE   3  7 DC 100.0E-6
  VI1  21  1 DC .75
  VI2  22  2 DC .75
  Q1    9 21  7 QIN
  Q2    8 22  7 QIN
  Q3    9  8  4 QMO
  Q4    8  8  4 QMI
.MODEL QIN PNP(IS=800.0E-18 BF=10.00E6)
.MODEL QMI NPN(IS=800.0E-18 BF=1002)
.MODEL QMO NPN(IS=800.0E-18 BF=1000 CJC=1E-15 TR=807.4E-9)
  E1   10  4  9  4  1
  V1   10 11 DC 0
  Q5    5 11  4 QOC
.MODEL QOC NPN(IS=800.0E-18 BF=1.810E3 CJC=1E-15 TF=1.357E-9 TR=1.129E-6)
  DP    4  3 DX
  RP 3  4 -70E3
.MODEL DX  D(IS=800.0E-18)
*
.ENDS
* TLC3704 VOLTAGE COMPARATOR "MACROMODEL" SUBCIRCUIT
* CREATED USING PARTS VERSION 4.03 ON 03/14/90 AT 10:09
* REV (N/A)
* ------------------------------------------------------------------------
*|(C) Copyright Texas Instruments Incorporated 2007. All rights reserved. |
*|                                                                        |
*|This Model is designed as an aid for customers of Texas Instruments.    |
*|No warranties, either expressed or implied, with respect to this Model  |
*|or its fitness for a particular purpose is claimed by Texas Instruments |
*|or the author.  The Model is licensed solely on an "as is" basis.  The  |
*|entire risk as to its quality and performance is with the customer.     |
* ------------------------------------------------------------------------
* NOTE: COMPONENTS ADDED TO SIMULATE ACTIVE PULL-UP
* CONNECTIONS:   NON-INVERTING INPUT
*                | INVERTING INPUT
*                | | POSITIVE POWER SUPPLY
*                | | | NEGATIVE POWER SUPPLY
*                | | | | OPEN COLLECTOR OUTPUT
*                | | | | |
.SUBCKT TLC3704  1 2 3 4 5
*
  F1    9  3 V1 1
  FOUT 30 5 POLY(1) (V1) 4E-3 -40         ;THESE COMPONENTS
  EO1 30 0 POLY(1) (3,0) -.75 1           ;ADDED TO SIMULATE
  DO1 5  30  DX                           ;ACTIVE PULL-UP
  IEE   3  7 DC 100.0E-6
  VI1  21  1 DC .75
  VI2  22  2 DC .75
  Q1    9 21  7 QIN
  Q2    8 22  7 QIN
  Q3    9  8  4 QMO
  Q4    8  8  4 QMI
.MODEL QIN PNP(IS=800.0E-18 BF=10.00E6)
.MODEL QMI NPN(IS=800.0E-18 BF=1002)
.MODEL QMO NPN(IS=800.0E-18 BF=1000 CJC=1E-15 TR=807.4E-9)
  E1   10  4  9  4  1
  V1   10 11 DC 0
  Q5    5 11  4 QOC
.MODEL QOC NPN(IS=800.0E-18 BF=1.810E3 CJC=1E-15 TF=1.357E-9 TR=1.129E-6)
  DP    4  3 DX
  RP 3  4 -70E3
.MODEL DX  D(IS=800.0E-18)
*
.ENDS
* TLC372 VOLTAGE COMPARATOR "MACROMODEL" SUBCIRCUIT
* CREATED USING PARTS VERSION 4.03 ON 03/15/90 AT 16:15
* REV (N/A)
* ------------------------------------------------------------------------
*|(C) Copyright Texas Instruments Incorporated 2007. All rights reserved. |
*|                                                                        |
*|This Model is designed as an aid for customers of Texas Instruments.    |
*|No warranties, either expressed or implied, with respect to this Model  |
*|or its fitness for a particular purpose is claimed by Texas Instruments |
*|or the author.  The Model is licensed solely on an "as is" basis.  The  |
*|entire risk as to its quality and performance is with the customer.     |
* ------------------------------------------------------------------------
* CONNECTIONS:   NON-INVERTING INPUT
*                | INVERTING INPUT
*                | | POSITIVE POWER SUPPLY
*                | | | NEGATIVE POWER SUPPLY
*                | | | | OPEN COLLECTOR OUTPUT
*                | | | | |
.SUBCKT TLC372   1 2 3 4 5
*
  F1    9  3 V1 1
  IEE   3  7 DC 100.0E-6
  VI1  21  1 DC .75
  VI2  22  2 DC .75
  Q1    9 21  7 QIN
  Q2    8 22  7 QIN
  Q3    9  8  4 QMO
  Q4    8  8  4 QMI
.MODEL QIN PNP(IS=800.0E-18 BF=10.00E6)
.MODEL QMI NPN(IS=800.0E-18 BF=1002)
.MODEL QMO NPN(IS=800.0E-18 BF=1000 CJC=1E-15 TR=403.7E-9)
  E1   10  4  9  4  1
  V1   10 11 DC 0
  Q5    5 11  4 QOC
.MODEL QOC NPN(IS=800.0E-18 BF=507.1 CJC=1E-15 TF=842.6E-12 TR=271.4E-9)
  DP    4  3 DX
  RP 3  4 -105E3
.MODEL DX  D(IS=800.0E-18)
*
.ENDS
* TLC374 VOLTAGE COMPARATOR "MACROMODEL" SUBCIRCUIT
* CREATED USING PARTS VERSION 4.03 ON 03/15/90 AT 16:15
* REV (N/A)
* ------------------------------------------------------------------------
*|(C) Copyright Texas Instruments Incorporated 2007. All rights reserved. |
*|                                                                        |
*|This Model is designed as an aid for customers of Texas Instruments.    |
*|No warranties, either expressed or implied, with respect to this Model  |
*|or its fitness for a particular purpose is claimed by Texas Instruments |
*|or the author.  The Model is licensed solely on an "as is" basis.  The  |
*|entire risk as to its quality and performance is with the customer.     |
* ------------------------------------------------------------------------
* CONNECTIONS:   NON-INVERTING INPUT
*                | INVERTING INPUT
*                | | POSITIVE POWER SUPPLY
*                | | | NEGATIVE POWER SUPPLY
*                | | | | OPEN COLLECTOR OUTPUT
*                | | | | |
.SUBCKT TLC374   1 2 3 4 5
*
  F1    9  3 V1 1
  IEE   3  7 DC 100.0E-6
  VI1  21  1 DC .75
  VI2  22  2 DC .75
  Q1    9 21  7 QIN
  Q2    8 22  7 QIN
  Q3    9  8  4 QMO
  Q4    8  8  4 QMI
.MODEL QIN PNP(IS=800.0E-18 BF=10.00E6)
.MODEL QMI NPN(IS=800.0E-18 BF=1002)
.MODEL QMO NPN(IS=800.0E-18 BF=1000 CJC=1E-15 TR=403.7E-9)
  E1   10  4  9  4  1
  V1   10 11 DC 0
  Q5    5 11  4 QOC
.MODEL QOC NPN(IS=800.0E-18 BF=507.1 CJC=1E-15 TF=842.6E-12 TR=271.4E-9)
  DP    4  3 DX
  RP 3  4 -105E3
.MODEL DX  D(IS=800.0E-18)
*
.ENDS
* TLC393 VOLTAGE COMPARATOR "MACROMODEL" SUBCIRCUIT
* CREATED USING PARTS VERSION 4.03 ON 03/13/90 AT 14:18
* REV (N/A)
* ------------------------------------------------------------------------
*|(C) Copyright Texas Instruments Incorporated 2007. All rights reserved. |
*|                                                                        |
*|This Model is designed as an aid for customers of Texas Instruments.    |
*|No warranties, either expressed or implied, with respect to this Model  |
*|or its fitness for a particular purpose is claimed by Texas Instruments |
*|or the author.  The Model is licensed solely on an "as is" basis.  The  |
*|entire risk as to its quality and performance is with the customer.     |
* ------------------------------------------------------------------------
* CONNECTIONS:   NON-INVERTING INPUT
*                | INVERTING INPUT
*                | | POSITIVE POWER SUPPLY
*                | | | NEGATIVE POWER SUPPLY
*                | | | | OPEN COLLECTOR OUTPUT
*                | | | | |
.SUBCKT TLC393   1 2 3 4 5
*
  F1    9  3 V1 1
  IEE   3  7 DC 100.0E-6
  VI1  21  1 DC .75
  VI2  22  2 DC .75
  Q1    9 21  7 QIN
  Q2    8 22  7 QIN
  Q3    9  8  4 QMO
  Q4    8  8  4 QMI
.MODEL QIN PNP(IS=800.0E-18 BF=10.00E6)
.MODEL QMI NPN(IS=800.0E-18 BF=1002)
.MODEL QMO NPN(IS=800.0E-18 BF=1000 CJC=1E-15 TR=1.304E-6)
  E1   10  4  9  4  1
  V1   10 11 DC 0
  Q5    5 11  4 QOC
.MODEL QOC NPN(IS=800.0E-18 BF=324.6 CJC=1E-15 TF=1.435E-9 TR=1.046E-6)
  DP    4  3 DX
  RP 3  4 -71E3
.MODEL DX  D(IS=800.0E-18)
*
.ENDS
* TLV2352I VOLTAGE COMPARATOR "MACROMODEL" SUBCIRCUIT
* CREATED USING PARTS VERSION 4.03 ON 07/31/92 AT 16:15
* REV (N/A)
* ------------------------------------------------------------------------
*|(C) Copyright Texas Instruments Incorporated 2007. All rights reserved. |
*|                                                                        |
*|This Model is designed as an aid for customers of Texas Instruments.    |
*|No warranties, either expressed or implied, with respect to this Model  |
*|or its fitness for a particular purpose is claimed by Texas Instruments |
*|or the author.  The Model is licensed solely on an "as is" basis.  The  |
*|entire risk as to its quality and performance is with the customer.     |
* ------------------------------------------------------------------------
* CONNECTIONS:   NON-INVERTING INPUT
*                | INVERTING INPUT
*                | | POSITIVE POWER SUPPLY
*                | | | NEGATIVE POWER SUPPLY
*                | | | | OPEN COLLECTOR OUTPUT
*                | | | | |
.SUBCKT TLV2352I 1 2 3 4 5
*
  F1    9  3 V1 1
  IEE   3  7 DC 100.0E-6
  VI1  21  1 DC .75
  VI2  22  2 DC .75
  Q1    9 21  7 QIN
  Q2    8 22  7 QIN
  Q3    9  8  4 QMO
  Q4    8  8  4 QMI
.MODEL QIN PNP(IS=800.0E-18 BF=10.00E6)
.MODEL QMI NPN(IS=800.0E-18 BF=1002)
.MODEL QMO NPN(IS=800.0E-18 BF=1000 CJC=1E-15 TR=403.7E-9)
  E1   10  4  9  4  1
  V1   10 11 DC 0
  Q5    5 11  4 QOC
.MODEL QOC NPN(IS=800.0E-18 BF=507.1 CJC=1E-15 TF=842.6E-12 TR=271.4E-9)
  DP    4  3 DX
  RP 3  4 -105E3
.MODEL DX  D(IS=800.0E-18)
*
.ENDS
* TLV2354I VOLTAGE COMPARATOR "MACROMODEL" SUBCIRCUIT
* CREATED USING PARTS VERSION 4.03 ON 07/31/92 AT 16:15
* REV (N/A)
* ------------------------------------------------------------------------
*|(C) Copyright Texas Instruments Incorporated 2007. All rights reserved. |
*|                                                                        |
*|This Model is designed as an aid for customers of Texas Instruments.    |
*|No warranties, either expressed or implied, with respect to this Model  |
*|or its fitness for a particular purpose is claimed by Texas Instruments |
*|or the author.  The Model is licensed solely on an "as is" basis.  The  |
*|entire risk as to its quality and performance is with the customer.     |
* ------------------------------------------------------------------------
* CONNECTIONS:   NON-INVERTING INPUT
*                | INVERTING INPUT
*                | | POSITIVE POWER SUPPLY
*                | | | NEGATIVE POWER SUPPLY
*                | | | | OPEN COLLECTOR OUTPUT
*                | | | | |
.SUBCKT TLV2354I 1 2 3 4 5
*
  F1    9  3 V1 1
  IEE   3  7 DC 100.0E-6
  VI1  21  1 DC .75
  VI2  22  2 DC .75
  Q1    9 21  7 QIN
  Q2    8 22  7 QIN
  Q3    9  8  4 QMO
  Q4    8  8  4 QMI
.MODEL QIN PNP(IS=800.0E-18 BF=10.00E6)
.MODEL QMI NPN(IS=800.0E-18 BF=1002)
.MODEL QMO NPN(IS=800.0E-18 BF=1000 CJC=1E-15 TR=403.7E-9)
  E1   10  4  9  4  1
  V1   10 11 DC 0
  Q5    5 11  4 QOC
.MODEL QOC NPN(IS=800.0E-18 BF=507.1 CJC=1E-15 TF=842.6E-12 TR=271.4E-9)
  DP    4  3 DX
  RP 3  4 -105E3
.MODEL DX  D(IS=800.0E-18)
*
.ENDS
* BEGIN MODEL TLV349
* ------------------------------------------------------------------------
*|(C) Copyright Texas Instruments Incorporated 2007. All rights reserved. |
*|                                                                        |
*|This Model is designed as an aid for customers of Texas Instruments.    |
*|No warranties, either expressed or implied, with respect to this Model  |
*|or its fitness for a particular purpose is claimed by Texas Instruments |
*|or the author.  The Model is licensed solely on an "as is" basis.  The  |
*|entire risk as to its quality and performance is with the customer.     |
* ------------------------------------------------------------------------
* PINOUT ORDER +IN -IN +V -V OUT
* PINOUT        3   4   5  2  1
.SUBCKT TLV349 3 4 5 2 1
* PINOUT IS FOR SOT23-5 PACKAGE
* BEGIN NOTES
* FOR ACCURATE INPUT BIAS
* CURRENTS, USE GMIN=1E-13
* MODEL TEMPERATURE RANGE IS
* -40 C TO +125 C, NOT ALL
* PARAMETERS TRACK THOSE OF
* THE REAL PART VS TEMPERATURE
* END NOTES
* BEGIN FEATURES
* OFFSET CHANGE AT TRANSITION
* WHEN CMV NEAR POSITIVE RAIL
* INPUT BIAS CURRENT
* INPUT CAPACITANCE
* INPUT COMMON MODE VOLTAGE RANGE
* INPUT CLAMPS TO RAILS
* CMRR WITH FREQUENCY EFFECTS
* PSRR WITH FREQUENCY EFFECTS
* OUTPUT TRANSISTION TIME
* QUIESCENT CURRENT
* QUIESCENT CURRENT VS VOLTAGE
* QUIESCENT CURRENT VS TEMPERATURE
* RAIL TO RAIL OUTPUT STAGE
* HIGH CLOAD EFFECTS
* OUTPUT CURRENT THROUGH SUPPLIES
* OUTPUT CURRENT LIMITING
* OUTPUT CLAMPS TO RAILS
* OUTPUT SWING VS OUTPUT CURRENT
* END FEATURES
R81 6 5 0.5
R82 2 7 0.5
R84 8 9 2.47E3
R85 10 11 0.5
R86 12 13 0.5
D21 1 5 DD
D22 2 1 DD
E25 12 0 2 0 1
E26 11 0 5 0 1
R96 20 17 100
R97 21 15 100
C32 9 1 8E-15
C36 1 0 0.1E-12
I28 18 19 0.5E-6
R5 1 16 17
R6 14 1 27
G16 22 23 8 23 -1E-3
G17 23 24 8 23 1E-3
G18 23 25 19 12 1E-3
G19 26 23 11 18 1E-3
D31 26 22 DD
D32 24 25 DD
M24 14 15 7 7 NOUT L=3U W=6000U
M25 16 17 6 6 POUT L=3U W=6000U
M26 18 18 10 10 POUT L=3U W=6000U
M29 19 19 13 13 NOUT L=3U W=6000U
R10 22 26 100E6
R11 25 24 100E6
R12 26 11 1E3
R13 12 25 1E3
E39 11 20 11 26 1
E40 21 12 25 12 1
R14 24 23 1E6
R15 25 23 1E6
R16 23 26 1E6
R17 23 22 1E6
R18 2 5 200E6
G20 5 2 27 0 -0.6E-6
D33 28 0 DD
V33 28 27 0.6
R19 0 27 1E6
I31 5 2 0.73E-6
I34 0 28 0.2E-6
E44 23 12 11 12 0.5
R20 29 30 1.2E6
D34 31 29 DD
D35 29 32 DD
V45 32 33 0.3
V46 34 31 0.3
C42 8 23 0.02E-12
R21 29 8 1.1E6
E45 34 23 35 0 1
E46 33 23 35 0 -1
D36 36 0 DD
I35 0 36 1.5E-6
V47 36 35 0.487
R22 0 35 1E9
D37 37 38 DD
D38 39 37 DD
G21 37 23 40 41 -0.2E-3
R23 23 37 3.5E6
C43 37 23 9E-12
M30 30 37 38 38 POUT L=3U W=30U
M31 30 37 39 39 NOUT L=3U W=30U
G22 37 23 42 43 -0.2E-3
R24 44 45 2
R25 46 45 2
E47 47 0 11 0 1
E48 48 0 12 0 1
E49 49 0 50 0 1
R26 47 51 1E6
R27 48 52 1E6
R28 49 53 1E6
R29 0 51 100
R30 0 52 100
R31 0 53 100
E50 54 3 53 0 -0.95
R32 55 50 1E3
R33 50 56 1E3
C44 47 51 5E-12
C45 48 52 5E-12
C46 49 53 2E-12
E51 57 54 52 0 0.25
E52 58 57 51 0 0.25
M32 41 59 44 44 PIN L=3U W=20U
M33 40 4 46 46 PIN L=3U W=20U
R34 12 41 25E3
R35 12 40 25E3
C47 41 40 8E-12
C48 58 0 2E-12
C49 4 0 2E-12
V48 58 59 0
M34 43 60 61 61 NIN L=3U W=20U
R36 62 61 2
M35 42 4 63 63 NIN L=3U W=20U
R37 62 63 2
R38 43 11 25E3
R39 42 11 25E3
C50 43 42 8E-12
V49 59 60 1E-3
M36 64 65 66 66 POUT L=6U W=500U
M37 67 68 11 11 PIN L=6U W=500U
V50 11 65 1.25
M38 62 64 12 12 NIN L=6U W=500U
M39 64 64 12 12 NIN L=6U W=500U
E53 56 0 58 0 1
E54 55 0 4 0 1
M40 68 68 11 11 PIN L=6U W=500U
I36 68 12 1E-6
V51 67 45 0
J6 69 58 69 JC
J7 69 4 69 JC
J8 4 70 4 JC
J9 58 70 58 JC
C51 58 4 4E-12
I37 58 0 1E-12
I38 4 0 1E-12
R140 66 67 1E3
V53 11 69 0.1
V54 70 12 0.1
V55 38 23 2.5
V56 39 23 -2.5
.MODEL DD D
.MODEL JC NJF IS=1E-18
.MODEL PIN PMOS KP=200U VTO=-0.7
.MODEL NIN NMOS KP=200U VTO=0.7
.MODEL POUT PMOS KP=200U VTO=-0.7 LAMBDA=0.01
.MODEL NOUT NMOS KP=200U VTO=0.7 LAMBDA=0.01
.ENDS
* END MODEL TLV349
* TLV3401
*****************************************************************************
* (C) Copyright 2011 Texas Instruments Incorporated. All rights reserved.                                            
*****************************************************************************
** This model is designed as an aid for customers of Texas Instruments.
** TI and its licensors and suppliers make no warranties, either expressed
** or implied, with respect to this model, including the warranties of 
** merchantability or fitness for a particular purpose.  The model is
** provided solely on an "as is" basis.  The entire risk as to its quality
** and performance is with the customer.
*****************************************************************************
*
* This model is subject to change without notice. Texas Instruments
* Incorporated is not responsible for updating this model.
*
*****************************************************************************
*
** Released by: Analog eLab Design Center, Texas Instruments Inc.
* Part: TLV3401
* Date: 13JUN2011
* Model Type: ALL IN ONE
* Simulator: TINA
* Simulator Version: 9.1.30.94 SF-TI
* EVM Order Number: N/A
* EVM Users Guide: N/A
* Datasheet: SLCS135A – AUGUST 2000 – REVISED NOVEMBER 2000
*
* Model Version: 1.0
*
*****************************************************************************
* 
* Updates:
*
* Version 1.0 : 
* Release to Web
*
*****************************************************************************
*
* THIS MODEL IS APPLICABLE FOR TLV3401,TLV3402 & TLV3403
*
*****************************************************************************
* BEGIN MODEL TLV3401
* BEGIN NOTES
* MODEL FEATURES INCLUDE OUTPUT SWING, OUTPUT
* CURRENT THROUGH THE SUPPLY RAILS, TPD VS
* DRIVE LEVEL, RISE AND FALL TIME VERSUS VCC,
* COMMON MODE REJECTION, POWER SUPPLY REJECT-
* ION, AVOL, INPUT CAPACITANCE, INPUT BIAS
* CURRENT WITH TEMPERATURE EFFECTS, INPUT
* COMMON MODE VOLTAGE RANGE, INPUT VOS, INPUT
* VOS TEMPCO, INPUT CLAMP DIODES,OUTPUT CLAMP
* DIODES, QUIESCENT CURRENT VS SUPPLY VOLTAGE,
* QUIESCENT CURRENT VS TEMPERATURE, AND OPEN
* DRAIN OFF OUTPUT LEAKAGE VS TEMPERATURE.
* MODEL TEMPERATURE RANGE IS -55 TO +125 DEG
* C. NOTE THAT MODEL IS FUNCTIONAL OVER THIS
* RANGE BUT NOT ALL PARAMETERS TRACK THOSE
* OF THE REAL PART. NOTE THAT TRISE AND TFALL
* ACCURACY IS BETTER IN VCC RANGE OF 2.5 TO
* 5, AND WORSE IN 5.5 TO 15 V RANGE. NOTE
* THAT THE MODEL HAS A SMALL INPUT HYSTERESIS
* BUILT IN (70-80 UV) THAT IS NOT IN THE REAL
* PART TO AID IN CONVERGENCE AND SIMULATION.
* END NOTES
* PINOUT ORDER +IN -IN +V -V OUT
* PINOUT ORDER  3   4   5  2  1
.SUBCKT TLV3401 3 4 5 2 1
I36 9 15 350E-11
R125 13 10 1E12
R127 6 7 1E6
C49 10 13 11E-15
R313 9 12 1E12
C111 3 0 2E-12
C112 4 0 2E-12
I37 3 0 2E-12
I38 4 0 2E-12
R315 10 16 1E5
R316 13 16 1E5
E50 9 0 2 0 1
E51 17 0 5 0 1
C120 12 9 2E-15
E53 18 9 17 9 0.5
R330 0 18 1E9
R331 0 18 1E9
R332 19 20 1E3
C122 13 20 0.08E-12
D52 21 22 DD
D53 23 24 DD
G21 20 18 10 13 -0.04E-3
V56 21 19 1.5
V57 19 24 1.5
C124 6 1 0.5E-12
C126 6 2 0.3E-12
Q1 7 25 17 QP
I39 25 17 3.7E-9
E61 8 9 19 18 -5
V63 22 18 2.5
V64 18 23 2.5
G23 17 25 26 27 -3.7E-9
M50 27 17 9 9 MSNA L=1U W=10U
M24 1 6 2 2 NOUT L=3U W=3U
M38 7 8 9 9 MCNO L=1U W=1.4U
M39 10 11 12 12 MCI L=3U W=0.01U
M40 13 14 12 12 MCI L=3U W=0.01U
R353 27 26 1E6
V65 26 9 1
V67 16 17 5
Q2 28 15 9 QN
V68 12 28 -3
M52 29 30 17 17 MCNV
M53 31 32 9 9 MCPV
R357 29 33 1E6
R358 34 31 1E6
M54 35 36 9 9 MCNC
M60 35 37 9 9 MCNC
E65 36 9 33 29 5
E66 37 9 31 34 5
V70 9 34 3
V71 33 17 3
D54 38 0 DD
I40 0 38 1E-3
V75 38 39 0.65
R360 0 39 1E6
E67 40 32 39 0 0.5
E68 3 30 39 0 -0.5
E69 40 9 3 9 10
M61 41 42 17 17 MCNV
M62 43 44 9 9 MCPV
R361 41 45 1E6
R362 46 43 1E6
M63 35 47 9 9 MCNC
M64 35 48 9 9 MCNC
E70 47 9 45 41 5
E71 48 9 43 46 5
V76 9 46 3
V77 45 17 3
D55 49 0 DD
I41 0 49 1E-3
V79 49 50 0.65
R364 0 50 1E6
E72 51 44 50 0 0.5
E73 4 42 50 0 -0.5
E74 51 9 4 9 10
R365 35 6 1
M65 52 17 9 9 MSNB L=1U W=10U
R366 52 53 1E6
V81 53 9 1
G24 17 25 53 52 -6.67E-9
E75 14 54 55 0 1E-2
E76 54 56 17 18 1.04E-3
E77 56 57 9 18 1E-3
E78 57 4 50 0 1.8E-3
R367 0 55 1E3
R368 55 58 1E5
E79 59 0 14 18 1
E80 60 0 3 18 1
R369 58 59 1E3
R370 58 60 1E3
R371 54 14 1E9
R372 56 54 1E9
R373 57 56 1E9
R374 4 57 1E9
R375 7 8 1E10
R376 63 10 1E10
V148 10 63 5
R377 18 20 1E9
D56 61 62 DL
V144 62 0 3
R378 0 61 1E8
G53 3 0 61 0 4.52E-10
I66 3 0 -125E-12
G54 4 0 61 0 4.52E-10
I67 4 0 -125E-12
G55 1 0 61 0 3.37E-10
I68 1 0 11E-12
G56 5 2 50 0 -870E-9
I69 5 2 460E-9
R379 2 5 1.35E9
V146 3 11 -250E-6
J1 4 9 4 JNC
J2 3 9 3 JNC
D57 2 1 DD
.MODEL DD D
.MODEL DL D IS=1E-11 N=1.397 XTI=1.5
.MODEL QN NPN
.MODEL QP PNP VAF=50
.MODEL JNC NJF IS=1E-18
.MODEL MSNA NMOS KP=200U VTO=3.5
.MODEL MSNB NMOS KP=200U VTO=7.5
.MODEL MCNV NMOS KP=200U VTO=5
.MODEL MCPV PMOS KP=200U VTO=-1
.MODEL MCNC NMOS KP=200U VTO=0.7
.MODEL MCI NMOS KP=200U VTO=0.7
.MODEL MCNO NMOS KP=200U VTO=1 LAMBDA=0.01
.MODEL MSN NMOS KP=200U VTO=7
.MODEL NOUT NMOS KP=200U VTO=0.7
+ LAMBDA=0.01 IS=1E-18
.ENDS
* END MODEL TLV3401
* TLV3491
*****************************************************************************
* (C) Copyright 2011 Texas Instruments Incorporated. All rights reserved.                                            
*****************************************************************************
** This model is designed as an aid for customers of Texas Instruments.
** TI and its licensors and suppliers make no warranties, either expressed
** or implied, with respect to this model, including the warranties of 
** merchantability or fitness for a particular purpose.  The model is
** provided solely on an "as is" basis.  The entire risk as to its quality
** and performance is with the customer.
*****************************************************************************
*
* This model is subject to change without notice. Texas Instruments
* Incorporated is not responsible for updating this model.
*
*****************************************************************************
*
** Released by: Analog eLab Design Center, Texas Instruments Inc.
* Part: TLV3491
* Date: 13JUN2011
* Model Type: ALL IN ONE
* Simulator: TINA
* Simulator Version: 9.1.30.94 SF-TI
* EVM Order Number: N/A
* EVM Users Guide: N/A
* Datasheet: SBOS262D – DECEMBER 2002 – REVISED APRIL 2005
*
* Model Version: 1.0
*
*****************************************************************************
* 
* Updates:
*
* Version 1.0 : 
* Release to Web
*
*****************************************************************************
*
* THIS MODEL IS APPLICABLE FOR TLV3491,TLV3492 & TLV3494
*
* BEGIN NOTES
* FOR ACCURATE INPUT BIAS
* CURRENTS, USE GMIN=1E-13
* MODEL TEMPERATURE RANGE IS
* -40 C TO +125 C, NOT ALL
* PARAMETERS TRACK THOSE OF
* THE REAL PART VS TEMPERATURE
* END NOTES
* BEGIN FEATURES
* OFFSET CHANGE AT TRANSITION
* WHEN CMV NEAR POSITIVE RAIL
* INPUT BIAS CURRENT
* INPUT CAPACITANCE
* INPUT COMMON MODE VOLTAGE RANGE
* INPUT CLAMPS TO RAILS
* CMRR WITH FREQUENCY EFFECTS
* PSRR WITH FREQUENCY EFFECTS
* OUTPUT TRANSISTION TIME
* QUIESCENT CURRENT
* QUIESCENT CURRENT VS VOLTAGE
* QUIESCENT CURRENT VS TEMPERATURE
* RAIL TO RAIL OUTPUT STAGE
* HIGH CLOAD EFFECTS
* OUTPUT CURRENT THROUGH SUPPLIES
* OUTPUT CURRENT LIMITING
* OUTPUT CLAMPS TO RAILS
* OUTPUT SWING VS OUTPUT CURRENT
* END FEATURES
* BEGIN MODEL TLV3491
* PINOUT IS FOR SOT23-5 PACKAGE
* PINOUT ORDER +IN -IN +V -V OUT
* PINOUT        3   4   5  2  1
*****************************************************************************
.SUBCKT TLV3491 3 4 5 2 1
R81 6 5 0.5
R82 2 7 0.5
R84 8 9 2.47E3
R85 10 11 0.5
R86 12 13 0.5
D21 1 5 DD
D22 2 1 DD
E25 12 0 2 0 1
E26 11 0 5 0 1
R96 20 17 100
R97 21 15 100
C32 9 1 8E-15
C36 1 0 0.1E-12
I28 18 19 0.5E-6
R5 1 16 17
R6 14 1 27
G16 22 23 8 23 -1E-3
G17 23 24 8 23 1E-3
G18 23 25 19 12 1E-3
G19 26 23 11 18 1E-3
D31 26 22 DD
D32 24 25 DD
M24 14 15 7 7 NOUT L=3U W=6000U
M25 16 17 6 6 POUT L=3U W=6000U
M26 18 18 10 10 POUT L=3U W=6000U
M29 19 19 13 13 NOUT L=3U W=6000U
R10 22 26 100E6
R11 25 24 100E6
R12 26 11 1E3
R13 12 25 1E3
E39 11 20 11 26 1
E40 21 12 25 12 1
R14 24 23 1E6
R15 25 23 1E6
R16 23 26 1E6
R17 23 22 1E6
R18 2 5 200E6
G20 5 2 27 0 -0.6E-6
D33 28 0 DD
V33 28 27 0.6
R19 0 27 1E6
I31 5 2 0.73E-6
I34 0 28 0.2E-6
E44 23 12 11 12 0.5
R20 29 30 1.2E6
D34 31 29 DD
D35 29 32 DD
V45 32 33 0.3
V46 34 31 0.3
C42 8 23 0.02E-12
R21 29 8 1.1E6
E45 34 23 35 0 1
E46 33 23 35 0 -1
D36 36 0 DD
I35 0 36 1.5E-6
V47 36 35 0.487
R22 0 35 1E9
D37 37 38 DD
D38 39 37 DD
G21 37 23 40 41 -0.2E-3
R23 23 37 3.5E6
C43 37 23 9E-12
M30 30 37 38 38 POUT L=3U W=30U
M31 30 37 39 39 NOUT L=3U W=30U
G22 37 23 42 43 -0.2E-3
R24 44 45 2
R25 46 45 2
E47 47 0 11 0 1
E48 48 0 12 0 1
E49 49 0 50 0 1
R26 47 51 1E6
R27 48 52 1E6
R28 49 53 1E6
R29 0 51 100
R30 0 52 100
R31 0 53 100
E50 54 3 53 0 -0.95
R32 55 50 1E3
R33 50 56 1E3
C44 47 51 5E-12
C45 48 52 5E-12
C46 49 53 2E-12
E51 57 54 52 0 0.25
E52 58 57 51 0 0.25
M32 41 59 44 44 PIN L=3U W=20U
M33 40 4 46 46 PIN L=3U W=20U
R34 12 41 25E3
R35 12 40 25E3
C47 41 40 8E-12
C48 58 0 2E-12
C49 4 0 2E-12
V48 58 59 0
M34 43 60 61 61 NIN L=3U W=20U
R36 62 61 2
M35 42 4 63 63 NIN L=3U W=20U
R37 62 63 2
R38 43 11 25E3
R39 42 11 25E3
C50 43 42 8E-12
V49 59 60 1E-3
M36 64 65 66 66 POUT L=6U W=500U
M37 67 68 11 11 PIN L=6U W=500U
V50 11 65 1.25
M38 62 64 12 12 NIN L=6U W=500U
M39 64 64 12 12 NIN L=6U W=500U
E53 56 0 58 0 1
E54 55 0 4 0 1
M40 68 68 11 11 PIN L=6U W=500U
I36 68 12 1E-6
V51 67 45 0
J6 69 58 69 JC
J7 69 4 69 JC
J8 4 70 4 JC
J9 58 70 58 JC
C51 58 4 4E-12
I37 58 0 1E-12
I38 4 0 1E-12
R140 66 67 1E3
V53 11 69 0.1
V54 70 12 0.1
V55 38 23 2.5
V56 39 23 -2.5
.MODEL DD D
.MODEL JC NJF IS=1E-18
.MODEL PIN PMOS KP=200U VTO=-0.7
.MODEL NIN NMOS KP=200U VTO=0.7
.MODEL POUT PMOS KP=200U VTO=-0.7 LAMBDA=0.01
.MODEL NOUT NMOS KP=200U VTO=0.7 LAMBDA=0.01
.ENDS
* END MODEL TLV3491
* TLV3492
*****************************************************************************