*
*
* INA117E = A3_117E OPERATIONAL AMPLIFIER + PRECISION RESISTOR NETWORK
* "E" IS ENHANCED MODEL
* CREATED ON 08/28/90 AT 9:50
* REV.A
* REV.B  18 JUNE 97 NPA: MOVED LEGAL DISCLAIMER TO BEGINNING OF FILE
* REV.C  11 MAY 99 NPA: MODIFIED RESISTOR NETWORK TOLERANCES TO MORE
*                       ACCURATELY MODEL EXTERNAL RESISTANCE EFFECTS.
*                       R1 & R2 WERE 380.0000K, R5 WAS 21.1111K.
*
* ------------------------------------------------------------------------
*|(C) Copyright Texas Instruments Incorporated 2007. All rights reserved. |
*|                                                                        |
*|This Model is designed as an aid for customers of Texas Instruments.    |
*|No warranties, either expressed or implied, with respect to this Model  |
*|or its fitness for a particular purpose is claimed by Texas Instruments |
*|or the author.  The Model is licensed solely on an "as is" basis.  The  |
*|entire risk as to its quality and performance is with the customer.     |
* ------------------------------------------------------------------------
*
*
***** INA117E SUB-CIRCUIT
* CONNECTIONS:          NON-INVERTING INPUT
*                       |  INVERTING INPUT
*                       |  |  POSITIVE POWER SUPPLY
*                       |  |  |  NEGATIVE POWER SUPPLY
*                       |  |  |  |  OUTPUT
*                       |  |  |  |  |  REFERENCE A
*                       |  |  |  |  |  |  REFERENCE B
*                       |  |  |  |  |  |  |
.SUBCKT INA117E         1  2  3  4  5  8  9
*
***** A3_117E SUB-CIRCUIT
* CONNECTIONS:          NON-INVERTING INPUT
*                       |  INVERTING INPUT
*                       |  | POSITIVE POWER SUPPLY
*                       |  |  |  NEGATIVE POWER SUPPLY
*                       |  |  |  |  OUTPUT
*                       |  |  |  |  |
X1                     14 13  3  4  5  A3_117E
*
R1    2   13   383.8000K
R2   13    5   383.8000K
C2   13    5     0.5000PF
R3    1   14   380.0000K
R4   14    8    19.9990K
R5   13    9    21.3222K
*
C1CM 14    0     3PF
C2CM 13    0     3PF
CDIF 14   13     7PF
*
.ENDS
* A3_117E OPERATIONAL AMPLIFIER "MACROMODEL" SUBCIRCUIT
* "E" IS ENHANCED MODEL
* CREATED USING PARTS RELEASE 4.03 ON 10/09/90 AT 08:58
* ------------------------------------------------------------------------
*|(C) Copyright Texas Instruments Incorporated 2007. All rights reserved. |
*|                                                                        |
*|This Model is designed as an aid for customers of Texas Instruments.    |
*|No warranties, either expressed or implied, with respect to this Model  |
*|or its fitness for a particular purpose is claimed by Texas Instruments |
*|or the author.  The Model is licensed solely on an "as is" basis.  The  |
*|entire risk as to its quality and performance is with the customer.     |
* ------------------------------------------------------------------------
*
* CONNECTIONS:   NON-INVERTING INPUT
*                | INVERTING INPUT
*                | | POSITIVE POWER SUPPLY
*                | | | NEGATIVE POWER SUPPLY
*                | | | | OUTPUT
*                | | | | |
.SUBCKT A3_117E  1 2 3 4 5
*
C1   11 12 9.283E-12
C2    6  7 13.00E-12
DC    5 53 DX
DE   54  5 DX
DLP  90 91 DX
DLN  92 90 DX
DP    4  3 DX
EGND 99  0 POLY(2) (3,0) (4,0) 0 .5 .5
FB    7 99 POLY(5) VB VC VE VLP VLN 0 4.081E6 -4E6 4E6 4E6 -4E6
GA    6  0 11 12 408.4E-6
GCM   0  6 10 99 408.4E-12
IEE  10  4 DC 39.14E-6
HLIM 90  0 VLIM 1K
Q1   11  2 13 QX
Q2   12  1 14 QX
R2    6  9 100.0E3
RC1   3 11 2.449E3
RC2   3 12 2.449E3
RE1  13 10 1.118E3
RE2  14 10 1.118E3
REE  10 99 5.110E6
RO1   8  5 60
RO2   7 99 60
*  RP    3  4 20.53E3
VB    9  0 DC 0
VC    3 53 DC 4.500
VE   54  4 DC 2
VLIM  7  8 DC 0
VLP  91  0 DC 20
VLN   0 92 DC 20
****************************
* A3_117 "E" - ENHANCEMENTS
****************************
* OUTPUT SUPPLY MIRROR
FQ3   0 20 POLY(1) VLIM 0  1
DQ1  20 21 DX
DQ2  22 20 DX
VQ1  21  0 0
VQ2  22  0 0
FQ1   3  0 POLY(1) VQ1  1.414E-3  1
FQ2   0  4 POLY(1) VQ2  1.414E-3 -1
* QUIESCIENT CURRENT
RQ    3  4  6.5E5
****************************
.MODEL DX D(IS=800.0E-18)
.MODEL QX NPN(IS=800.0E-18 BF=278.6)
.ends
*.ENDS INA117E
*
* ------------------------------------------------------------------------
*|(C) Copyright Texas Instruments Incorporated 2007. All rights reserved. |
*|                                                                        |
*|This Model is designed as an aid for customers of Texas Instruments.    |
*|No warranties, either expressed or implied, with respect to this Model  |
*|or its fitness for a particular purpose is claimed by Texas Instruments |
*|or the author.  The Model is licensed solely on an "as is" basis.  The  |
*|entire risk as to its quality and performance is with the customer.     |
* ------------------------------------------------------------------------
* INA132E = A3_132E OPERATIONAL AMPLIFIER + PRECISION RESISTOR NETWORK
* "E" IS ENHANCED MODEL
* CREATED ON 11/11/96 AT 2:50
* REV.A
* REV.B  20 JUNE 97 NPA: MOVED LEGAL DISCLAIMER TO BEGINNING OF FILE
*
***** INA132E SUB-CIRCUIT
* CONNECTIONS:          NON-INVERTING INPUT
*                       |  INVERTING INPUT
*                       |  |  POSITIVE POWER SUPPLY
*                       |  |  |  NEGATIVE POWER SUPPLY
*                       |  |  |  |  OUTPUT
*                       |  |  |  |  |  REFERENCE
*                       |  |  |  |  |  |  SENSE
*                       |  |  |  |  |  |  |
.SUBCKT INA132E         1  2  3  4  5  8  9
*
***** A3_132E SUB-CIRCUIT
* CONNECTIONS:          NON-INVERTING INPUT
*                       |  INVERTING INPUT
*                       |  |  POSITIVE POWER SUPPLY
*                       |  |  |  NEGATIVE POWER SUPPLY
*                       |  |  |  |  OUTPUT
*                       |  |  |  |  |
X1                     14 13  3  4  5  A3_132E
*
  R1   2  13   40000
  R2   13  9   39997
  C2   13  9   .15p
  R3   1  14   40000
  R4   14  8   40000
*
*
.ENDS
*
* INA132E operational amplifier "macromodel" subcircuit
* created using Parts release 6.0 on 11/08/96 at 17:04
* Parts is a MicroSim product.
* Notes on construction of the INA132E Extended Macromodel
*
* Differential and Common-Mode capacitances for the op-amp have been
*  eliminated because the inputs to the op-amp are not brought out of
*  the package. This limits the capacitance at those nodes. Any effect
*  on the AC performance of the part (particularly the AC CMRR) is
*  minimal because of the INA132's bandwidth of 300kHz
*
* The noise of the simulated op-amp is larger than that in the actual
*  circuit. This comes from the op-amp that was generated by the Micro-
*  Sim Parts program. It should be noted that the dominant source of
*  voltage noise is the four 40K resistors. VN1, VN2, DN1, DN2, and EN
*  are included so that the 1/f noise is accurately simulated.
*  The input bias current is also roughly half of the actual circuit.
*  This discrepancy also comes from the Parts program.
*
* Simulations involving capacitive load drive are approximate. In the
*  actual circuit, the output stage characteristics change more
*  with the type of load. Swing to the rails are also modeled with
*  approximations for the same reasons.
*
* While using the simulation in single supply, the simulation may not
*  give the correct result for the current coming out of the supplies
*  due to the nature of the model. The model was designed for dual
*  supply operation.
*
* For further information see the INA132 data sheet and the Burr-Brown
*  Spice Based Macromodels Applications Bulletin.
* ------------------------------------------------------------------------
*|(C) Copyright Texas Instruments Incorporated 2007. All rights reserved. |
*|                                                                        |
*|This Model is designed as an aid for customers of Texas Instruments.    |
*|No warranties, either expressed or implied, with respect to this Model  |
*|or its fitness for a particular purpose is claimed by Texas Instruments |
*|or the author.  The Model is licensed solely on an "as is" basis.  The  |
*|entire risk as to its quality and performance is with the customer.     |
* ------------------------------------------------------------------------
*
*
* connections:   non-inverting input
*                | inverting input
*                | | positive power supply
*                | | | negative power supply
*                | | | | output
*                | | | | |
.subckt A3_132E  1 2 3 4 5
*
  c1   11 12 7.279E-12
  c2    6  7 40.00E-12
  dc    5 53 dx
  de   54  5 dx
  dlp  90 91 dx
  dln  92 90 dx
  dp    4  3 dx
  egnd 99  0 poly(2) (3,0) (4,0) 0 .5 .5
  fb    7 99 poly(5) vb vc ve vlp vln 0 1.326E9 -1E9 1E9 1E9 -1E9
  ga    6  0 11 12 75.40E-6
  gcm   0  6 10 99 377.0E-12
  iee   3 10 dc 4.730E-6
  hlim 90  0 vlim 1K
  q1   11  2 13 qx
  q2   12 64 14 qx
  r2    6  9 100.0E3
  rc1   4 11 13.26E3
  rc2   4 12 13.26E3
  re1  13 10 .9k
  re2  14 10 .9k
  ree  10 99 42.28E6
  ro1   8  5  200
  ro2   7 99  200
  vb    9  0 dc 0
  vc    3 53 dc 1.350
  ve   54  4 dc .80
  vlim  7  8 dc 0
  vlp  91  0 dc 12
  vln   0 92 dc 12
**********************************
*                                *
* Additions for the              *
* INA132E (enhanced) macro model *
*                                *
**********************************
  rp    3  4  5E6           ; replace rp w/ rp and ip to
                            ; get correct Iq change w/supply
  dq1  20  21  dx
  dq2  22  20  dx
  vq1  21  0   0
  vq2  22  0   0
  fq1  3   0   poly(1) vq1  149u  1      ; Models current from
  fq2  0   4   poly(1) vq2  149u  -1     ; supplies with load
  fq3  0   20  poly(1) vlim 0     1
  vn1  61  0   .6                        ; Noise model (1/f portion)
  vn2  0   62  .6
  dn1  61  63  dy
  dn2  63  62  dy
  en   64  1   63  0  .6
.model dx D(Is=800.0E-18)
.model dy D(Is=1.9E-16 AF=1 KF=2.258E-17)
.model qx PNP(Is=800.0E-18 Bf=300)
.ENDS
*.ENDS INA132E
*
*
* BEGIN MODEL INA133
* BEGIN FEATURES
* CLOSED LOOP GAIN
* SLEW RATE
* INPUT VOLTAGE NOISE
* WITH 1/F EFFECTS
* CMRR VS FREQ
* PSRR+ VS FREQ
* PSRR- VS FREQ
* INPUT VOLTAGE RANGE
* VOS
* GAIN ERROR
* CLOAD RESPONSE
* SETTLING TIME 0.1%
* IQ
* END FEATURES
* ------------------------------------------------------------------------
*|(C) Copyright Texas Instruments Incorporated 2007. All rights reserved. |
*|                                                                        |
*|This Model is designed as an aid for customers of Texas Instruments.    |
*|No warranties, either expressed or implied, with respect to this Model  |
*|or its fitness for a particular purpose is claimed by Texas Instruments |
*|or the author.  The Model is licensed solely on an "as is" basis.  The  |
*|entire risk as to its quality and performance is with the customer.     |
* ------------------------------------------------------------------------
* PINOUT ORDER +IN -IN +V -V OUT SEN REF
* PINOUT ORDER  3   2   7  4  6   5   1
.SUBCKT INA133 3 2 7 4 6 5 1
Q26 8 9 10 QON
Q27 11 9 12 QOP
Q28 4 13 14 QOP
Q29 7 15 16 QON
I4 8 15 0.5E-3
I5 13 11 0.5E-3
R34 17 16 20
R35 14 17 20
C6 9 18 20E-12
R36 19 9 1E3
G1 9 19 20 0 -1E-3
G2 21 19 22 23 -1.83E-5
R37 19 21 1E10
C7 20 24 15.5E-12
R38 20 21 100
E1 25 19 20 19 1
D2 25 21 DD
R39 19 24 1.5E3
Q30 23 26 27 QIN
Q31 22 28 29 QIN
Q32 30 31 32 QNN
R40 33 32 17.4E3
V6 31 34 1.2613
R41 23 35 60E3
R42 22 35 60E3
V7 8 36 -1.3
R45 30 27 5500
R46 30 29 5500
R47 6 17 75
D1 36 35 DD
D3 21 25 DD
D4 37 8 DD
D5 11 38 DD
V8 37 21 1.7
V9 21 38 1.1
E6 39 0 8 0 1
E7 40 0 11 0 1
E8 41 0 42 0 1
R48 39 43 1E6
R49 40 44 1E6
R50 41 45 1E6
R51 0 43 10
R52 0 44 10
R53 0 45 10
E11 46 47 45 0 1.6
R54 48 42 1E3
R55 42 49 1E3
C10 39 43 5E-9
C11 40 44 1E-9
C12 41 45 5E-12
E12 50 46 44 0 0.5
E13 51 50 43 0 1
R60 50 51 1E9
R61 46 50 1E9
R62 47 46 1E9
E22 48 0 52 0 1
E23 49 0 51 0 1
E24 53 54 55 56 2.5E-2
I7 0 56 100E-6
D6 56 0 DVN
I8 0 55 100E-6
D7 55 0 DVN
R63 26 51 4E3
R64 53 28 4E3
Q33 26 26 57 QNN
Q34 57 57 28 QNN
Q35 58 58 26 QNN
Q36 28 28 58 QNN
E25 11 0 4 0 1
E26 8 0 7 0 1
I9 7 4 0.17E-3
R65 4 7 100E3
E27 19 0 8 11 0.001
C13 52 0 3E-12
C14 51 0 3E-12
C15 51 52 5E-12
V10 54 52 0
R66 12 15 20
R67 13 10 20
Q37 34 34 33 QNN
I15 11 31 286E-6
R68 1 47 24995
R69 52 5 24995
R70 2 52 25E3
R71 47 3 25E3
V12 33 11 -1.1
R72 19 18 500
D8 4 17 DD
D9 17 7 DD
.MODEL DD D
.MODEL DVN D KF=1.6E-13
.MODEL QNN NPN
.MODEL QIN NPN BF=270 KF=4E-17
.MODEL QON NPN BF=60 RC=70
.MODEL QOP PNP BF=60 RC=95
.ENDS
* END MODEL INA133
* ------------------------------------------------------------------------
*|(C) Copyright Texas Instruments Incorporated 2007. All rights reserved. |
*|                                                                        |
*|This Model is designed as an aid for customers of Texas Instruments.    |
*|No warranties, either expressed or implied, with respect to this Model  |
*|or its fitness for a particular purpose is claimed by Texas Instruments |
*|or the author.  The Model is licensed solely on an "as is" basis.  The  |
*|entire risk as to its quality and performance is with the customer.     |
* ------------------------------------------------------------------------
*
* INA134E = A3_134E OPERATIONAL AMPLIFIER + PRECISION RESISTOR NETWORK
* CREATED ON 7/25/97 AT 15:00
* REV A
* REV.B  20 JUNE 97 NPA: MOVED LEGAL DISCLAIMER TO BEGINNING OF FILE
*
*
***** INA134E SUB-CIRCUIT
* CONNECTIONS:		NON-INVERTING INPUT
*			|  INVERTING INPUT
*			|  |  POSITIVE POWER SUPPLY
*			|  |  |  NEGATIVE POWER SUPPLY
*			|  |  |  |  OUTPUT
*			|  |  |  |  |  REFERENCE
*			|  |  |  |  |  |  SENSE
*			|  |  |  |  |  |  |
.SUBCKT INA134E	1  2  3  4  5  8  9
*
X1       14 13 3 4 5  A3_134E
*
R1       2 13   25K
R2       13 9   24.9985K
R3       1 14   25K
R4       14 8   25K
*
CDIF     14 13  1.8PF
C1CM     4 14   0.05PF
*
.ENDS
*
* A3_134E operational amplifier "macromodel" subcircuit
* created using Parts release 6.3a on 07/24/97 at 11:39
* Parts is a MicroSim product.
* ------------------------------------------------------------------------
*|(C) Copyright Texas Instruments Incorporated 2007. All rights reserved. |
*|                                                                        |
*|This Model is designed as an aid for customers of Texas Instruments.    |
*|No warranties, either expressed or implied, with respect to this Model  |
*|or its fitness for a particular purpose is claimed by Texas Instruments |
*|or the author.  The Model is licensed solely on an "as is" basis.  The  |
*|entire risk as to its quality and performance is with the customer.     |
* ------------------------------------------------------------------------
*
* connections:   non-inverting input
*                | inverting input
*                | | positive power supply
*                | | | negative power supply
*                | | | | output
*                | | | | |
.subckt A3_134E  1 2 3 4 5
*
  c1   11 12 7.151E-12
  c2    6  7 12.00E-12
  dc    5 53 dx
  de   54  5 dx
  dlp  90 91 dx
  dln  92 90 dx
  dp    4  3 dx
  egnd 99  0 poly(2) (3,0) (4,0) 0 .5 .5
  fb    7 99 poly(5) vb vc ve vlp vln 0 122.8E6 -120E6 120E6 120E6 -120E6
  ga    6  0 11 12 271.4E-6
  gcm   0  6 10 99 271.4E-12
  iee  10  4 dc 168.5E-6
  hlim 90  0 vlim 1K
  q1   11  2 13 qx
  q2   12  1 14 qx
  r2    6  9 100.0E3
  rc1   3 11 3.684E3
  rc2   3 12 3.684E3
  re1  13 10 3.366E3
  re2  14 10 3.366E3
  ree  10 99 1.187E6
  ro1   8  5 15
  ro2   7 99 15
  vb    9  0 dc 0
  vc    3 53 dc 2.500
  ve   54  4 dc 2.200
  vlim  7  8 dc 0
  vlp  91  0 dc 70
  vln   0 92 dc 70
****************************
* A3_134E "E" - ENHANCEMENTS
****************************
* OUTPUT SUPPLY MIRROR
FQ3   0 20 POLY(1) VLIM 0  1
DQ1  20 21 DX
DQ2  22 20 DX
VQ1  21  0 0
VQ2  22  0 0
FQ1   3  0 POLY(1) VQ1  2.1E-3  1
FQ2   0  4 POLY(1) VQ2  2.1E-3 -1
* QUIESCIENT CURRENT
RQ    3  4  2.8E5
****************************
.model dx D(Is=800.0E-18)
.model qx NPN(Is=800.0E-18 Bf=336)
.ends
*.ENDS INA134E
*
* ------------------------------------------------------------------------
*|(C) Copyright Texas Instruments Incorporated 2007. All rights reserved. |
*|                                                                        |
*|This Model is designed as an aid for customers of Texas Instruments.    |
*|No warranties, either expressed or implied, with respect to this Model  |
*|or its fitness for a particular purpose is claimed by Texas Instruments |
*|or the author.  The Model is licensed solely on an "as is" basis.  The  |
*|entire risk as to its quality and performance is with the customer.     |
* ------------------------------------------------------------------------
*
* INA137E = A3_137E OPERATIONAL AMPLIFIER + PRECISION RESISTOR NETWORK (ENHANCED MODEL)
* CREATED ON 7/25/97 AT 15:00
* REV A
* REV.B  29 JULY 97 NPA: MOVED LEGAL DISCLAIMER TO BEGINNING OF FILE
*
*
***** INA137E SUB-CIRCUIT
* CONNECTIONS:		NON-INVERTING INPUT
*			|  INVERTING INPUT
*			|  |  POSITIVE POWER SUPPLY
*			|  |  |  NEGATIVE POWER SUPPLY
*			|  |  |  |  OUTPUT
*			|  |  |  |  |  REFERENCE
*			|  |  |  |  |  |  SENSE
*			|  |  |  |  |  |  |
.SUBCKT INA137E		1  2  3  4  5  8  9
*
X1       14 13 3 4 5  A3_137E
*
R1       2 13   12K
R2       13 9   5.9995K
R3       1 14   12K
R4       14 8   6K
*
CDIF     14 13  1.8PF
C1CM     4 14   0.05PF
*
.ENDS
*
* A3_137E operational amplifier "macromodel" subcircuit
* created using Parts release 6.3a on 07/24/97 at 11:39
* Parts is a MicroSim product.
* ------------------------------------------------------------------------
*|(C) Copyright Texas Instruments Incorporated 2007. All rights reserved. |
*|                                                                        |
*|This Model is designed as an aid for customers of Texas Instruments.    |
*|No warranties, either expressed or implied, with respect to this Model  |
*|or its fitness for a particular purpose is claimed by Texas Instruments |
*|or the author.  The Model is licensed solely on an "as is" basis.  The  |
*|entire risk as to its quality and performance is with the customer.     |
* ------------------------------------------------------------------------
*
* connections:   non-inverting input
*                | inverting input
*                | | positive power supply
*                | | | negative power supply
*                | | | | output
*                | | | | |
.subckt A3_137E  1 2 3 4 5
*
  c1   11 12 11.43E-12
  c2    6  7 16.00E-12
  dc    5 53 dx
  de   54  5 dx
  dlp  90 91 dx
  dln  92 90 dx
  dp    4  3 dx
  egnd 99  0 poly(2) (3,0) (4,0) 0 .5 .5
  fb    7 99 poly(5) vb vc ve vlp vln 0 77.11E6 -77E6 77E6 77E6 -77E6
  ga    6  0 11 12 432.3E-6
  gcm   0  6 10 99 432.3E-12
  iee  10  4 dc 224.5E-6
  hlim 90  0 vlim 1K
  q1   11  2 13 qx
  q2   12  1 14 qx
  r2    6  9 100.0E3
  rc1   3 11 2.313E3
  rc2   3 12 2.313E3
  re1  13 10 2.078E3
  re2  14 10 2.078E3
  ree  10 99 890.9E3
  ro1   8  5 15
  ro2   7 99 15
  vb    9  0 dc 0
  vc    3 53 dc 2.500
  ve   54  4 dc 2.200
  vlim  7  8 dc 0
  vlp  91  0 dc 70
  vln   0 92 dc 70
****************************
* A3_137E "E" - ENHANCEMENTS
****************************
* OUTPUT SUPPLY MIRROR
FQ3   0 20 POLY(1) VLIM 0  1
DQ1  20 21 DX
DQ2  22 20 DX
VQ1  21  0 0
VQ2  22  0 0
FQ1   3  0 POLY(1) VQ1  2.1E-3  1
FQ2   0  4 POLY(1) VQ2  2.1E-3 -1
* QUIESCIENT CURRENT
RQ    3  4  2.8E5
****************************
.model dx D(Is=800.0E-18)
.model qx NPN(Is=800.0E-18 Bf=448)
.ends
*.ENDS INA137E
*
*
* BEGIN MODEL INA143
* BEGIN FEATURES
* CLOSED LOOP GAIN
* SLEW RATE
* INPUT VOLTAGE NOISE
* WITH 1/F EFFECTS
* CMRR VS FREQ
* PSRR+ VS FREQ
* PSRR- VS FREQ
* INPUT VOLTAGE RANGE
* VOS
* GAIN ERROR
* CLOAD RESPONSE
* SETTLING TIME 0.1%
* IQ
* END FEATURES
* ------------------------------------------------------------------------
*|(C) Copyright Texas Instruments Incorporated 2007. All rights reserved. |
*|                                                                        |
*|This Model is designed as an aid for customers of Texas Instruments.    |
*|No warranties, either expressed or implied, with respect to this Model  |
*|or its fitness for a particular purpose is claimed by Texas Instruments |
*|or the author.  The Model is licensed solely on an "as is" basis.  The  |
*|entire risk as to its quality and performance is with the customer.     |
* ------------------------------------------------------------------------
* PINOUT ORDER +IN -IN +V -V OUT SEN REF
* PINOUT ORDER  3   2   7  4  6   5   1
.SUBCKT INA143 3 2 7 4 6 5 1
Q26 8 9 10 QON
Q27 11 9 12 QOP
Q28 4 13 14 QOP
Q29 7 15 16 QON
I4 8 15 0.5E-3
I5 13 11 0.5E-3
R34 17 16 20
R35 14 17 20
C6 9 18 20E-12
R36 19 9 1E3
G1 9 19 20 0 -1E-3
G2 21 19 22 23 -1.83E-5
R37 19 21 1E10
C7 20 24 15.5E-12
R38 20 21 100
E1 25 19 20 19 1
D2 25 21 DD
R39 19 24 1.5E3
Q30 23 26 27 QIN
Q31 22 28 29 QIN
Q32 30 31 32 QNN
R40 33 32 17.4E3
V6 31 34 1.2613
R41 23 35 60E3
R42 22 35 60E3
V7 8 36 -1.3
R45 30 27 5500
R46 30 29 5500
R47 6 17 75
D1 36 35 DD
D3 21 25 DD
D4 37 8 DD
D5 11 38 DD
V8 37 21 1.7
V9 21 38 1.1
E6 39 0 8 0 1
E7 40 0 11 0 1
E8 41 0 42 0 1
R48 39 43 1E6
R49 40 44 1E6
R50 41 45 1E6
R51 0 43 10
R52 0 44 10
R53 0 45 10
E11 46 47 45 0 0.85
R54 48 42 1E3
R55 42 49 1E3
C10 39 43 5E-9
C11 40 44 1E-9
C12 41 45 5E-12
E12 50 46 44 0 0.75
E13 51 50 43 0 1.5
R60 50 51 1E9
R61 46 50 1E9
R62 47 46 1E9
E22 48 0 52 0 1
E23 49 0 51 0 1
E24 53 54 55 56 2.5E-2
I7 0 56 100E-6
D6 56 0 DVN
I8 0 55 100E-6
D7 55 0 DVN
R63 26 51 2E3
R64 53 28 2E3
Q33 26 26 57 QNN
Q34 57 57 28 QNN
Q35 58 58 26 QNN
Q36 28 28 58 QNN
E25 11 0 4 0 1
E26 8 0 7 0 1
I9 7 4 0.17E-3
R65 4 7 100E3
E27 19 0 8 11 0.001
C13 52 0 3E-12
C14 51 0 3E-12
C15 51 52 5E-12
V10 54 52 103E-6
R66 12 15 20
R67 13 10 20
Q37 34 34 33 QNN
I15 11 31 286E-6
R68 1 47 99990
R69 52 5 99990
R70 2 52 10E3
R71 47 3 10E3
V12 33 11 -1.3
R72 19 18 500
D8 4 17 DD
D9 17 7 DD
.MODEL DD D
.MODEL DVN D KF=1.6E-13
.MODEL QNN NPN
.MODEL QIN NPN BF=270 KF=4E-17
.MODEL QON NPN BF=60 RC=70
.MODEL QOP PNP BF=60 RC=95
.ENDS
* END MODEL INA143
* BEGIN MODEL INA145
* ------------------------------------------------------------------------
*|(C) Copyright Texas Instruments Incorporated 2007. All rights reserved. |
*|                                                                        |
*|This Model is designed as an aid for customers of Texas Instruments.    |
*|No warranties, either expressed or implied, with respect to this Model  |
*|or its fitness for a particular purpose is claimed by Texas Instruments |
*|or the author.  The Model is licensed solely on an "as is" basis.  The  |
*|entire risk as to its quality and performance is with the customer.     |
* ------------------------------------------------------------------------
* PINOUT ORDER  REF VIN- VIN+ V- RG OUT V+ V01
* PINOUT ORDER   1   2    3   4   5  6  7   8
.SUBCKT INA145 1 2 3 4 5 6 7 8
* FEATURES MODELED ARE
* GAIN AND PHASE, CMRR AND PSRR DC AND VS
* FREQUENCY, COMMON MODE INPUT RANGE, OFFSET
* VOLTAGE, BIAS CURRENT, SLEW RATE VERSUS
* TEMPERATURE, INPUT VOLTAGE NOISE, GAIN
* ERROR, SETTLING TO 0.1%, IQ, OUTPUT SWING,
* AND OUTPUT CURRENT FLOWING THROUGH THE
* SUPPLY RAILS.
* END OF FEATURES
R108 0 9 1E6
Q42 10 11 12 QON
Q43 13 11 14 QOP
Q44 4 15 16 QOP
Q45 7 17 18 QON
I24 10 17 25E-6
I25 15 13 25E-6
R109 16 19 1
C27 11 20 55E-12
R110 20 11 1E3
G5 11 20 INT 20 -1E-3
G6 21 20 22 23 -0.5E-3
R111 20 21 7E8
C28 INT 24 178E-12
R112 INT 21 3E3
E41 25 20 INT 20 1
D14 26 21 DS
R113 20 24 50
R114 27 10 5E3
R115 13 23 10E3
R116 13 22 10E3
R117 28 29 6.5E3
R118 30 29 6.5E3
R119 9 19 5
D15 21 31 DS
D16 32 10 DD
D17 13 33 DD
V20 32 21 1.6
V21 21 33 0.58
E42 34 0 10 0 1
E43 35 0 13 0 1
E44 36 0 37 0 1
R120 34 38 10E6
R121 35 39 10E6
R122 36 40 10E6
R123 0 38 100
R124 0 39 100
R125 0 40 10
E45 41 42 40 0 -16
R126 43 37 1E3
R127 37 44 1E3
C30 34 38 1E-12
C31 35 39 5E-9
C32 36 40 90E-12
E46 45 41 39 0 3
E47 46 45 38 0 3
R128 45 46 1E9
R129 41 45 1E9
R130 42 41 1E9
E48 43 0 47 0 1
E49 44 0 46 0 1
E50 48 49 50 51 0.022
I26 0 51 100E-6
D18 51 0 DVN
I27 0 50 100E-6
D19 50 0 DVN
R131 52 46 6.5E3
R132 48 53 6.5E3
E51 13 0 4 0 1
E52 10 0 7 0 1
I28 7 4 230E-6
R133 4 7 1E6
E53 20 13 10 13 0.5
C33 47 0 3E-12
C34 46 0 3E-12
C35 46 47 2E-12
V22 49 47 0
R134 14 17 1
R135 15 12 1
R136 19 18 1
I29 46 0 56E-9
I30 47 0 56E-9
I31 54 13 22E-6
Q46 55 54 27 QIP
Q47 22 53 30 QIP
Q48 23 56 28 QIP
Q49 54 54 57 QIP
R138 57 10 5E3
R139 9 47 39.995E3
R140 47 2 40E3
R141 42 1 40E3
R142 3 42 40E3
Q50 58 59 60 QON
Q51 61 59 62 QOP
Q52 4 63 64 QOP
Q53 7 65 66 QON
I32 58 65 25E-6
I33 63 61 25E-6
R144 64 67 1
C36 59 68 55E-12
R145 68 59 1E3
G7 59 68 69 68 -1E-3
G8 70 68 71 72 -0.5E-3
R146 68 70 7E8
C37 69 73 178E-12
R147 69 70 3E3
E54 74 68 69 68 1
D20 75 70 DS
R148 68 73 50
R149 76 58 5E3
R150 61 72 10E3
R151 61 71 10E3
R152 77 78 6.5E3
R153 79 78 6.5E3
R154 6 67 5
D21 70 80 DS
D22 81 58 DD
D23 61 82 DD
V27 81 70 1.6
V28 70 82 0.58
E55 83 0 58 0 1
E56 84 0 61 0 1
E57 85 0 86 0 1
R155 83 87 10E6
R156 84 88 10E6
R157 85 89 10E6
R158 0 87 100
R159 0 88 100
R160 0 89 10
E58 90 8 89 0 -16
R161 91 86 1E3
R162 86 92 1E3
C39 83 87 1E-12
C40 84 88 5E-9
C41 85 89 90E-12
E59 93 90 88 0 3
E60 94 93 87 0 3
R163 93 94 1E9
R164 90 93 1E9
R165 8 90 1E9
E61 91 0 5 0 1
E62 92 0 94 0 1
E63 95 96 97 98 0.022
I34 0 98 100E-6
D24 98 0 DVN
I35 0 97 100E-6
D25 97 0 DVN
R166 99 94 6.5E3
R167 95 100 6.5E3
E64 61 0 4 0 1
E65 58 0 7 0 1
I36 7 4 230E-6
R168 4 7 1E6
E66 68 61 58 61 0.5
C42 5 0 3E-12
C43 94 0 3E-12
C44 94 5 2E-12
V29 96 5 0
R169 62 65 1
R170 63 60 1
R171 67 66 1
I37 94 0 56E-9
I38 5 0 56E-9
I39 101 61 22E-6
Q54 102 101 76 QIP
Q55 71 100 79 QIP
Q56 72 103 77 QIP
Q57 101 101 104 QIP
R173 104 58 5E3
R177 9 8 10E3
I41 0 105 1E-3
D27 105 0 DS
V31 105 106 0.5
R179 0 106 6.5E3
E69 26 25 106 0 1.8
E70 31 25 106 0 -1.8
I43 0 107 1E-3
D29 107 0 DS
V33 107 108 0.5
R181 0 108 6.5E3
E73 75 74 108 0 1.8
E74 80 74 108 0 -1.8
V34 103 99 -0.2E-3
V35 56 52 -0.1E-3
V37 102 78 -1
V38 55 29 -1
R182 0 80 1E9
R183 0 75 1E9
R184 0 31 1E9
R185 0 26 1E9
R186 106 0 1E9
R187 108 0 1E9
D30 67 7 DD
D31 4 67 DD
D32 19 7 DD
D33 4 19 DD
.MODEL DD D
.MODEL DVN D KF=1.6E-13
.MODEL DS D RS=10 IS=5E-15
.MODEL QIN NPN BF=100 KF=8E-17
.MODEL QIP PNP BF=100 KF=2.15E-17
.MODEL QON NPN BF=800 RC=50
.MODEL QOP PNP BF=800 RC=50
.ENDS
* END MODEL INA145
* BEGIN MODEL INA146
* ------------------------------------------------------------------------
*|(C) Copyright Texas Instruments Incorporated 2007. All rights reserved. |
*|                                                                        |
*|This Model is designed as an aid for customers of Texas Instruments.    |
*|No warranties, either expressed or implied, with respect to this Model  |
*|or its fitness for a particular purpose is claimed by Texas Instruments |
*|or the author.  The Model is licensed solely on an "as is" basis.  The  |
*|entire risk as to its quality and performance is with the customer.     |
* ------------------------------------------------------------------------
* PINOUT ORDER  REF VIN- VIN+ V- RG OUT V+ V01
* PINOUT ORDER   1   2    3   4   5  6  7   8
.SUBCKT INA146 1 2 3 4 5 6 7 8
* FEATURES MODELED ARE
* GAIN AND PHASE, CMRR AND PSRR DC AND VS
* FREQUENCY, COMMON MODE INPUT RANGE, OFFSET
* VOLTAGE, BIAS CURRENT, SLEW RATE VERSUS
* TEMPERATURE, INPUT VOLTAGE NOISE, GAIN
* ERROR, SETTLING TO 0.1%, IQ, OUTPUT SWING,
* AND OUTPUT CURRENT FLOWING THROUGH THE
* SUPPLY RAILS.
* END OF FEATURES
R108 0 9 1E6
Q42 10 11 12 QON
Q43 13 11 14 QOP
Q44 4 15 16 QOP
Q45 7 17 18 QON
I24 10 17 25E-6
I25 15 13 25E-6
R109 16 19 1
C27 11 20 55E-12
R110 20 11 1K
G5 11 20 INT 20 -1E-3
G6 21 20 22 23 -0.5E-3
R111 20 21 7E8
C28 INT 24 178E-12
R112 INT 21 3E3
E41 25 20 INT 20 1
D14 26 21 DS
R113 20 24 50
R114 27 10 5E3
R115 13 23 10E3
R116 13 22 10E3
R117 28 29 6.5E3
R118 30 29 6.5E3
R119 9 19 5
D15 21 31 DS
D16 32 10 DD
D17 13 33 DD
V20 32 21 1.6
V21 21 33 0.58
E42 34 0 10 0 1
E43 35 0 13 0 1
E44 36 0 37 0 1
R120 34 38 10E6
R121 35 39 10E6
R122 36 40 10E6
R123 0 38 100
R124 0 39 100
R125 0 40 10
E45 41 42 40 0 -16
R126 43 37 1E3
R127 37 44 1E3
C30 34 38 1E-12
C31 35 39 5E-9
C32 36 40 90E-12
E46 45 41 39 0 3
E47 46 45 38 0 3
R128 45 46 1E9
R129 41 45 1E9
R130 42 41 1E9
E48 43 0 47 0 1
E49 44 0 46 0 1
E50 48 49 50 51 0.022
I26 0 51 100E-6
D18 51 0 DVN
I27 0 50 100E-6
D19 50 0 DVN
R131 52 46 6.5E3
R132 48 53 6.5E3
E51 13 0 4 0 1
E52 10 0 7 0 1
I28 7 4 230E-6
R133 4 7 1E6
E53 20 13 10 13 0.5
C33 47 0 3E-12
C34 46 0 3E-12
C35 46 47 2E-12
V22 49 47 0
R134 14 17 1
R135 15 12 1
R136 19 18 1
I29 46 0 56E-9
I30 47 0 56E-9
I31 54 13 22E-6
Q46 55 54 27 QIP
Q47 22 53 30 QIP
Q48 23 56 28 QIP
Q49 54 54 57 QIP
R138 57 10 5E3
R139 9 47 9.99875E3
R140 47 2 100E3
R141 42 1 10E3
R142 3 42 100E3
Q50 58 59 60 QON
Q51 61 59 62 QOP
Q52 4 63 64 QOP
Q53 7 65 66 QON
I32 58 65 25E-6
I33 63 61 25E-6
R144 64 67 1
C36 59 68 55E-12
R145 68 59 1E3
G7 59 68 69 68 -1E-3
G8 70 68 71 72 -0.5E-3
R146 68 70 7E8
C37 69 73 178E-12
R147 69 70 3E3
E54 74 68 69 68 1
D20 75 70 DS
R148 68 73 50
R149 76 58 5E3
R150 61 72 10E3
R151 61 71 10E3
R152 77 78 6.5E3
R153 79 78 6.5E3
R154 6 67 5
D21 70 80 DS
D22 81 58 DD
D23 61 82 DD
V27 81 70 1.6
V28 70 82 0.58
E55 83 0 58 0 1
E56 84 0 61 0 1
E57 85 0 86 0 1
R155 83 87 10E6
R156 84 88 10E6
R157 85 89 10E6
R158 0 87 100
R159 0 88 100
R160 0 89 10
E58 90 8 89 0 -16
R161 91 86 1E3
R162 86 92 1E3
C39 83 87 1E-12
C40 84 88 5E-9
C41 85 89 90E-12
E59 93 90 88 0 3
E60 94 93 87 0 3
R163 93 94 1E9
R164 90 93 1E9
R165 8 90 1E9
E61 91 0 5 0 1
E62 92 0 94 0 1
E63 95 96 97 98 0.022
I34 0 98 100E-6
D24 98 0 DVN
I35 0 97 100E-6
D25 97 0 DVN
R166 99 94 6.5E3
R167 95 100 6.5E3
E64 61 0 4 0 1
E65 58 0 7 0 1
I36 7 4 230E-6
R168 4 7 1E6
E66 68 61 58 61 0.5
C42 5 0 3E-12
C43 94 0 3E-12
C44 94 5 2E-12
V29 96 5 0
R169 62 65 1
R170 63 60 1
R171 67 66 1
I37 94 0 56E-9
I38 5 0 56E-9
I39 101 61 22E-6
Q54 102 101 76 QIP
Q55 71 100 79 QIP
Q56 72 103 77 QIP
Q57 101 101 104 QIP
R173 104 58 5E3