* ------------------------------------------------------------------------
*|(C) Copyright Texas Instruments Incorporated 2007. All rights reserved. |
*|                                                                        |
*|This Model is designed as aTHSn aid for customers of Texas Instruments.    |
*|No warranties, either expressed or implied, with respect to this Model  |
*|or its fitness for a particular purpose is claimed by Texas Instruments |
*|or the author.  The Model is licensed solely on an "as is" basis.  The  |
*|entire risk as to its quality and performance is with the customer.     |
* ------------------------------------------------------------------------

*  
* OPA1632 SUBCIRCUIT
* FULLY DIFFERENTIAL HIGH SPEED MONLITHIC OPERATIONAL AMPLIFIER 
* WRITTEN 6/29/04
* TEMPLATE=X^@REFDES %IN+ %IN- %VCC+ %VCC- %OUT+ %OUT- %VOCM @MODEL
* CONNECTIONS:      NON-INVERTING INPUT
*                   | INVERTING INPUT
*                   | | POSITIVE POWER SUPPLY
*                   | | | NEGATIVE POWER SUPPLY
*                   | | | | OUTPUT +
*                   | | | | | OUTPUT -
*                   | | | | | |  VOCM
*                   | | | | | |  |
.SUBCKT OPA1632     1 2 3 4 5 5b 17 
*
* INPUT *
 Q1          27 1  28 NPN_IN 2
 Q2          25 2  29 NPN_IN 2
 R2          26  29  15  
 R1          26  28  15  
* SECOND STAGE *
 Q3          07 Vref  27 PNP 2
 Q4          09 Vref  25 PNP 2
 Q5          07  105  06 NPN 1
 Q7          09  105  08 NPN 1
 R3           4  06  333  
 R4           4  08  333  
 Cc           0  09  25.5p  
 Ccb          0  07  25.5p  
* HIGH FREQUENCY SHAPING *
 Ehf          34 0  09 0 1
 Lhf          34  35  7n  
 Rhf          102  35  25  
 Chf         0  102  23p  
 Ehfb          24 0  07 0 1
 Lhfb          24  33  7n  
 Rhfb          12  33  25  
 Chfb         0  12  23p  
* OUTPUT *
 Q8          102  102  103 PNP 1
 Q9          102  102  104 NPN 1
 Q10         3  103  30 NPN 5
 Q11         4  104  31 PNP 7.5
 R5          5 30  4  
 R7          31  5  4  
 Q8b          12  12  13 PNP 1
 Q9b          12  12  15 NPN 1
 Q10b         3  13  22 NPN 5
 Q11b         4  15  23 PNP 7.5
 R5b          5b  22  4  
 R7b          23  5b  4  
* Vcm ERROR AMP *
  Gcm          0 105  16  17b 1e-4
  Vcm	   17 17b 285e-3
  Rtop         17 3 30k
  Rbot         17 4 30k   
  Rcm          16 5  10k  
  Ccm          16 5b  100p  
  Rcm2         16 5b  10k  
  Ccm2         16 5  100p  
* BIAS SOURCES *
 V1         3 Vref 1.85
 I1         3 27 DC 2.1e-3  
 I2         3 25 DC 2.1e-3  
 I3         0 103 DC 1.225e-3  
 I4         26 4 DC 2.1e-3  
 I5         104 0 DC 1.86e-3  
 I6         0 13 DC 1.225e-3  
 I7         15 0 DC 1.86e-3  
 
.MODEL NPN_IN NPN
+ IS=170E-18 BF=400 NF=1 VAF=100 IKF=0.0389 ISE=7.6E-18
+ NE=1.13489 BR=1.11868 NR=1 VAR=4.46837 IKR=8 ISC=8E-15
+ NC=1.8 RB=25 RE=0.1220 RC=20 CJE=120.2E-15 VJE=1.0888 MJE=0.381406
+ VJC=0.589703 MJC=0.265838 FC=0.1 CJC=133.8E-15 XTF=272.204 TF=12.13E-12
+ VTF=10 ITF=0.147 TR=3E-09 XTB=1 XTI=5 KF=7.5E-14
.MODEL NPN NPN
+ IS=170E-18 BF=100 NF=1 VAF=100 IKF=0.0389 ISE=7.6E-18
+ NE=1.13489 BR=1.11868 NR=1 VAR=4.46837 IKR=8 ISC=8E-15
+ NC=1.8 RB=250 RE=0.1220 RC=200 CJE=120.2E-15 VJE=1.0888 MJE=0.381406
+ VJC=0.589703 MJC=0.265838 FC=0.1 CJC=133.8E-15 XTF=272.204 TF=12.13E-12
+ VTF=10 ITF=0.147 TR=3E-09 XTB=1 XTI=5
.MODEL PNP PNP
+ IS=296E-18 BF=100 NF=1 VAF=100 IKF=0.021 ISE=494E-18
+ NE=1.49168 BR=0.491925 NR=1 VAR=2.35634 IKR=8 ISC=8E-15
+ NC=1.8 RB=250 RE=0.1220 RC=200 CJE=120.2E-15 VJE=0.940007 MJE=0.55
+ VJC=0.588526 MJC=0.55 FC=0.1 CJC=133.8E-15 XTF=141.135 TF=12.13E-12
+ VTF=6.82756 ITF=0.267 TR=3E-09 XTB=1 XTI=5
.ENDS
*$
* PSpice Model Editor - Version 9.2
*$
* ------------------------------------------------------------------------
*|(C) Copyright Texas Instruments Incorporated 2007. All rights reserved. |
*|                                                                        |
*|This Model is designed as an aid for customers of Texas Instruments.    |
*|No warranties, either expressed or implied, with respect to this Model  |
*|or its fitness for a particular purpose is claimed by Texas Instruments |
*|or the author.  The Model is licensed solely on an "as is" basis.  The  |
*|entire risk as to its quality and performance is with the customer.     |
* ------------------------------------------------------------------------
.SUBCKT THS4120 inp1 inn1 vdd vss outp outn vocm
.MODEL p1 PMOS
+ LEVEL=3
+ L=2.0000E-6
+ W=.5
+ RS=10.000E-3
+ RD=10.000E-3
+ VTO=-3
+ RDS=1.0000E6
+ TOX=2.0000E-6
+ CGSO=40.000E-12
+ CGDO=10.000E-12
+ CBD=1.0000E-9
+ RG=5
+ RB=1.0000E-3
+ GAMMA=0
+ KAPPA=0
+ UO=300
.MODEL n1 NMOS
+ LEVEL=3
+ L=2.0000E-6
+ W=5.0000E-6
+ KP=100.00E-6
+ RS=10.000E-3
+ RD=10.000E-3
+ VTO=.7
+ RDS=1.0000E6
+ TOX=200.00E-9
+ CGSO=4.0000E-15
+ CGDO=1.0000E-15
+ CBD=1.0000E-15
+ RG=100
+ IS=10.000E-18
+ RB=1.0000E-3
+ GAMMA=.6
+ DELTA=20.000E-3
+ ETA=20.000E-3
+ KAPPA=0
+ VMAX=13.500E3
+ XJ=200.00E-9
+ KF=1.38e-27
+ AF=1
.MODEL D_break D
+ RS=1.0000E-1
+ CJO=1.0000E-13
+ IS=100e-15
R_R101       vdd vdd1 65 
R_R102       vdd vdd2 65
C-C101       N47671 N47742 1.5p
C_C102       inp2 try 1p
C_C103       inn1 try 1p
C_C104       inp1 N47671 2.3p
C_C105       inn1 N47742 2.3p
E_E10        VOCM1 vss VOCM vss 1
R_R16         vss OUTP  25k  
E_E5         INP2 INP1 CMR vss 1
V_V6         vdd N125776 0.85Vdc
I_I4         TRY vss DC 6mAdc  
C_C1         OUTN vss  4p  
X_U3         Vdd1 N47671 vdd AMPP A1_4120 PARAMS:  IL=3.4m
C_C6         vss INN1  3p  
C_C7         AMPN N115715  11.8p  
C_C2         vss OUTP  4p  
R_R33         OUTP VCOM  20k  
R_R17         OUTN vss  25k  
M_Q11         N47671 INP2 TRY TRY N1   
+ W=1.5m         
G_G3         CMR vss N119932 vss 30e-6
X_U4         vdd2 N47742 vdd AMPN A1_4120 PARAMS:  IL=3.4m
R_R34         VCOM OUTN  20k  
R_R9         VOCM1 AMPN  10k  
D_D5         OUTP N125776 D_BREAK 32
M_Q12         N47742 INN1 TRY TRY N1   
+ W=1.5m         
L_L1         CMR N119774  40n  
E_E3         N119932 N120193 INP1 INN1 0.5
V_V7         vss N126207 -0.8
I_I6         AMPN vss DC 3mAdc  
D_D6         OUTN N125776 D_BREAK 32
E_E4         N120193 vss INN1 vss 1
D_D7         N126207 OUTP D_BREAK 32
R_R7         vss N119774  0.5  
C_C8         AMPP N115811  11.8p  
D_D8         N126207 OUTN D_BREAK 32
G_G4         OUTP VOCM1 AMPN VOCM1 50m
R_R5         N115811 OUTN  9.5  
R_R10         VOCM1 AMPP  10k  
G_G13         TRY vss VCOM VOCM 200m
I_I7         AMPP vss DC 3mAdc  
C_C5         vss INP1  3p  
R_R6         N115715 OUTP  9.5  
G_G14         TRY vss VCOM VOCM 200m
G_G5         OUTN VOCM1 AMPP VOCM1 50m
.ENDS THS4120

.SUBCKT A1_4120 1 2 3 4  
+ PARAMS: 
+ IL = 800u ;
v1  1 2 0 
Gout 3 4 value={limit(I(v1),IL,-IL)} ;
.ENDS 
*$
* PSpice Model Editor - Version 9.2
*$
* ------------------------------------------------------------------------
*|(C) Copyright Texas Instruments Incorporated 2007. All rights reserved. |
*|                                                                        |
*|This Model is designed as an aid for customers of Texas Instruments.    |
*|No warranties, either expressed or implied, with respect to this Model  |
*|or its fitness for a particular purpose is claimed by Texas Instruments |
*|or the author.  The Model is licensed solely on an "as is" basis.  The  |
*|entire risk as to its quality and performance is with the customer.     |
* ------------------------------------------------------------------------
.SUBCKT THS4121 inp1 inn1 vdd vss outp outn vocm
.MODEL p1 PMOS
+ LEVEL=3
+ L=2.0000E-6
+ W=.5
+ RS=10.000E-3
+ RD=10.000E-3
+ VTO=-3
+ RDS=1.0000E6
+ TOX=2.0000E-6
+ CGSO=40.000E-12
+ CGDO=10.000E-12
+ CBD=1.0000E-9
+ RG=5
+ RB=1.0000E-3
+ GAMMA=0
+ KAPPA=0
+ UO=300
.MODEL n1 NMOS
+ LEVEL=3
+ L=2.0000E-6
+ W=5.0000E-6
+ KP=100.00E-6
+ RS=10.000E-3
+ RD=10.000E-3
+ VTO=.7
+ RDS=1.0000E6
+ TOX=200.00E-9
+ CGSO=4.0000E-15
+ CGDO=1.0000E-15
+ CBD=1.0000E-15
+ RG=100
+ IS=10.000E-18
+ RB=1.0000E-3
+ GAMMA=.6
+ DELTA=20.000E-3
+ ETA=20.000E-3
+ KAPPA=0
+ VMAX=13.500E3
+ XJ=200.00E-9
+ KF=1.38e-27
+ AF=1
.MODEL D_break D
+ RS=1.0000E-1
+ CJO=1.0000E-13
+ IS=100e-15
R_R101       vdd vdd1 65 
R_R102       vdd vdd2 65
C-C101       N47671 N47742 1.5p
C_C102       inp2 try 1p
C_C103       inn1 try 1p
C_C104       inp1 N47671 2.3p
C_C105       inn1 N47742 2.3p
E_E10        VOCM1 vss VOCM vss 1
R_R16         vss OUTP  25k  
E_E5         INP2 INP1 CMR vss 1
V_V6         vdd N125776 0.85Vdc
I_I4         TRY vss DC 6mAdc  
C_C1         OUTN vss  4p  
X_U3         Vdd1 N47671 vdd AMPP A1_4121 PARAMS:  IL=3.4m
C_C6         vss INN1  3p  
C_C7         AMPN N115715  11.8p  
C_C2         vss OUTP  4p  
R_R33         OUTP VCOM  20k  
R_R17         OUTN vss  25k  
M_Q11         N47671 INP2 TRY TRY N1   
+ W=1.5m         
G_G3         CMR vss N119932 vss 30e-6
X_U4         vdd2 N47742 vdd AMPN A1_4121 PARAMS:  IL=3.4m
R_R34         VCOM OUTN  20k  
R_R9         VOCM1 AMPN  10k  
D_D5         OUTP N125776 D_BREAK 32
M_Q12         N47742 INN1 TRY TRY N1   
+ W=1.5m         
L_L1         CMR N119774  40n  
E_E3         N119932 N120193 INP1 INN1 0.5
V_V7         vss N126207 -0.8
I_I6         AMPN vss DC 3mAdc  
D_D6         OUTN N125776 D_BREAK 32
E_E4         N120193 vss INN1 vss 1
D_D7         N126207 OUTP D_BREAK 32
R_R7         vss N119774  0.5  
C_C8         AMPP N115811  11.8p  
D_D8         N126207 OUTN D_BREAK 32
G_G4         OUTP VOCM1 AMPN VOCM1 50m
R_R5         N115811 OUTN  9.5  
R_R10         VOCM1 AMPP  10k  
G_G13         TRY vss VCOM VOCM 200m
I_I7         AMPP vss DC 3mAdc  
C_C5         vss INP1  3p  
R_R6         N115715 OUTP  9.5  
G_G14         TRY vss VCOM VOCM 200m
G_G5         OUTN VOCM1 AMPP VOCM1 50m
.ENDS THS4121
*
.SUBCKT A1_4121 1 2 3 4  
+ PARAMS: 
+ IL = 800u ;
v1  1 2 0 
Gout 3 4 value={limit(I(v1),IL,-IL)} ;
.ENDS 
*$
* THS4130 - Operational-amplifier SPICE MODEL
*
* Classification: HIGH-SPEED, LOW NOISE, FULLY-DIFFERENTIAL I/O AMPLIFIER
*****************************************************************************
* (C) Copyright 2009 Texas Instruments Incorporated. All rights reserved.                                          
*****************************************************************************
** This model is designed as an aid for customers of Texas Instruments.                                           
** TI and its licensors and suppliers make no warranties, either expressed                                         
** or implied, with respect to this model, including the warranties of                                                  
** merchantability or fitness for a particular purpose. The model is                                                  
** provided solely on an "as is" basis. The entire risk as to its quality                                                    
** and performance is with the customer                                                                                            
*****************************************************************************
*
* Released by: Analog eLab Design Center, Texas Instruments Inc.
* Part:        THS4130
* Written:     2009-09-09
* Model Type:  TINA
* Simulator:   Version 7.0.80.40 SF
* Revision:    B
* Datasheet:   SLOS318F–MAY 2000–REVISED JANUARY 2006
*
*****************************************************************************
*  
* NOTES:
*   1- This macromodel predicts well: DC, small-signal AC, noise,
*      , and transient performance under a wide range
*      of conditions.
*   2- This macromodel does not predict well: distortion
*      (harmonic, intermod, diff. gain & phase, ...),
*      temperature effects, board parasitics, differences
*      between package styles, and process changes
*   3- Known Problems: - None
*
* |----------------------------------------------------------------------
* |  This macro model is being supplied as an aid to       
* |  circuit designs.  While it reflects reasonably close      
* |  similarity to the actual device in terms of performance,
* |  it is not suggested as a replacement for breadboarding.
* |  Simulation should be used as a forerunner or a supplement
* |  to traditional lab testing.                              
* |                                                           
* |  Neither this library nor any part may be copied without  
* |  the express written consent of Texas Instruments Corp. 
* |----------------------------------------------------------------------
*
*$
* BEGIN MODEL THS4130
* MODEL OPERATES FROM -40 TO +125 C
* SOME PARAMETERS DO NOT TRACK THOSE
* OF THE REAL PART VS TEMPERATURE
* MODEL FEATURES INCLUDE:
* OPEN LOOP GAIN, CLOSED LOOP BANDWIDTH (G >=2),
* INPUT VOLTAGE NOISE WITH 1/F,
* INPUT CURRENT NOISE WITH 1/F,
* VOCM FUNCTION, OUTPUT SWING VS CURRENT
* CMRR, PSRR, VOS, TCVOS, OUTPUT CURRENT LIMIT
* OUTPUT CURRENT IS DRAWN THROUGH SUPPLY RAILS
* OUTPUT IMPEDANCE, INPUT CAPACITANCE
* INPUT BIAS CURRENT, QUIESCENT CURRENT,
* SHUTDOWN, QUIESCENT AT SHUTDOWN,
* AND SHUTDOWN ENABLE AND DISABLE TIME DELAYS.
* END FEATURES
* PINOUT ORDER VIN- VOCM V+ VOUT+ VOUT- V- PD VIN+
* PINOUT ORDER  1     2   3   4     5    6  7   8
.SUBCKT THS4130 1 2 3 4 5 6 7 8
R51 6 2 30E3
R52 2 3 30E3
C3 5 9 1E-15
C4 9 4 1E-15
C8 8 10 4E-12
C9 1 11 4E-12
R62 0 10 0.1
R63 0 11 0.1
Q18 6 12 13 QOP
Q22 3 14 13 QON
R176 0 5 1E6
D6 5 3 DD
D7 6 5 DD
D8 15 0 DIN
D9 16 0 DIN
I9 0 15 0.1E-3
I10 0 16 0.1E-3
E5 17 0 6 0 1
E6 18 0 3 0 1
D10 19 0 DVN
D11 20 0 DVN
I11 0 19 0.1E-3
I12 0 20 0.1E-3
E7 8 21 19 20 0.163
G3 22 21 15 16 1.5E-22
I13 3 6 1E-6
R178 6 3 1E8
E8 23 0 18 24 1
E9 25 0 17 24 1
E10 26 0 27 0 1
R179 23 28 1E5
R180 25 29 1E5
R181 26 30 1E5
R182 0 28 10
R183 0 29 10
R184 0 30 10
E11 31 1 30 0 0.31
R185 32 27 1E3
R186 27 33 1E3
C18 23 28 1E-12
C19 25 29 0.25E-12
C20 26 30 1E-12
E12 34 31 29 0 -0.06
E13 35 34 28 0 0.06
Q29 18 36 12 QON
Q30 17 36 14 QOP
G7 37 24 38 24 0.1
G8 36 24 37 24 0.1
R187 24 37 10
R188 24 36 10
C22 37 24 2E-10
C23 36 24 2E-14
R191 13 5 5
E19 32 0 21 24 1
E20 33 0 22 24 1
Q34 6 39 40 QOP
Q35 3 41 40 QON
R197 0 4 1E6
D22 4 3 DD
D23 6 4 DD
E21 42 0 6 0 1
E22 43 0 3 0 1
I24 3 6 1E-6
R199 6 3 1E8
Q40 43 44 39 QON
Q41 42 44 41 QOP
G11 45 24 46 24 0.1
G12 44 24 45 24 0.1
R208 24 45 10
R209 24 44 10
C31 45 24 2E-10
C32 44 24 2E-14
R212 40 4 5
G22 43 41 47 0 0.55E-3
G23 39 42 47 0 0.55E-3
G25 18 14 47 0 0.55E-3
G26 12 17 47 0 0.55E-3
G29 3 6 48 0 11.65E-3
E54 49 0 47 0 1
V31 49 48 0
M44 50 7 17 17 NEO L=3U W=300U
M45 51 52 17 17 NEN L=3U W=3000U
R306 50 18 1E4
R307 51 53 1E6
V52 53 17 1
C62 7 0 1E-12
E55 54 0 55 17 1
V53 51 56 1.111E-6
R308 17 56 1E12
C63 18 50 3E-15
C64 53 51 2.5E-15
M50 57 50 17 17 NEN L=3U W=300U
M51 52 57 17 17 NEN L=3U W=300U
R309 57 53 1E4
R310 52 53 1E4
C65 53 57 160E-12
C106 53 52 300E-12
V54 47 54 0.07U
R312 0 54 1E12
R313 0 47 1E12
R314 0 47 1E12
R315 47 0 1E12
R316 47 0 1E12
R317 48 0 1E12
R318 48 0 1E12
E56 9 4 5 4 0.5
E60 58 59 47 0 45
E61 60 38 47 0 -45
V57 61 60 22.5
V58 62 58 -22.5
R328 58 24 1E12
R329 60 24 1E12
M52 38 62 59 63 PSW L=1.5U W=15000U
M53 59 61 38 64 NSW L=1.5U W=15000U
R330 63 24 1E12
R331 64 24 1E12
E62 24 6 3 6 0.5
R332 46 59 0.1
Q42 65 66 67 QIN
Q43 68 21 69 QIN
R338 70 67 15
R339 70 69 15
Q44 71 72 65 QIP
Q45 73 72 68 QIP
Q46 71 74 75 QIN
Q47 73 74 76 QIN
R340 17 75 333
R341 17 76 333
I39 77 78 2.1E-5
I40 79 65 2.1E-3
I41 79 68 2.1E-3
V63 79 72 1.67
Q48 80 81 82 QCP
Q49 74 74 83 QCN
Q50 74 2 84 QCP
R342 82 85 200
R343 84 85 200
I42 3 85 1.05E-3
Q51 80 80 86 QCN
R344 6 86 666
R345 6 83 666
C109 87 71 19.5E-12
C110 73 88 19.5E-12
R346 24 87 60
R347 24 88 60
R348 71 73 7E5
R349 55 51 1E8
C111 55 0 1.5E-14
Q53 70 78 77 QSN
V64 18 79 1.2
V65 77 17 1
I44 0 89 1E-3
D36 89 0 DD
V66 89 90 0.6551
R351 89 0 1E9
E68 22 35 90 0 140E-6
R352 0 90 1E9
V69 66 22 50E-6
V70 81 91 16.15E-3
E69 91 9 90 0 -0.0285
R353 35 22 1E9
R354 34 35 1E9
R355 31 34 1E9
R356 1 31 1E9
R357 6 24 1E9
R358 9 91 1E9
R359 9 4 1E9
R360 7 18 5E4
D37 92 18 DD
D38 93 18 DD
D39 17 94 DD
D40 17 95 DD
V71 92 46 2.14
V72 93 38 2.14
V73 46 94 2.18
V74 38 95 2.18
I45 22 0 1.48E-6
I46 21 0 1.48E-6
G35 3 6 3 6 -15E-6
I47 6 3 0.242E-3
R361 21 8 1E9
V75 38 73 0.55
V76 46 71 0.55
.MODEL PSW PMOS KP=200U VTO=-7.5 IS=1E-18
.MODEL NSW NMOS KP=200U VTO=7.5 IS=1E-18
.MODEL QSN NPN
.MODEL QCN NPN
.MODEL QCP PNP
.MODEL QON NPN VAF=90 RE=3 BF=150
.MODEL QOP PNP VAF=90 RE=3 BF=150
.MODEL QIN NPN BF=2000 RB=12.1 KF=3E-16
.MODEL QIP PNP BF=2000 RB=12.1 KF=3E-16
.MODEL DVN D KF=1.5E-15
.MODEL DIN D KF=9E-16
.MODEL DD D
.MODEL NEN NMOS KP=200U VTO=0.5 IS=1E-18
.MODEL NEO NMOS KP=200U VTO=0.8 IS=1E-18
.ENDS
* END MODEL THS4130
* ------------------------------------------------------------------------
*|(C) Copyright Texas Instruments Incorporated 2007. All rights reserved. |
*|                                                                        |
*|This Model is designed as an aid for customers of Texas Instruments.    |
*|No warranties, either expressed or implied, with respect to this Model  |
*|or its fitness for a particular purpose is claimed by Texas Instruments |
*|or the author.  The Model is licensed solely on an "as is" basis.  The  |
*|entire risk as to its quality and performance is with the customer.     |
* ------------------------------------------------------------------------
*  
*  
* THS4131 SUBCIRCUIT
* FULLY DIFFERENTIAL HIGH SPEED MONLITHIC OPERATIONAL AMPLIFIER 
* WRITTEN 9/18/00
* TEMPLATE=X^@REFDES %IN+ %IN- %VCC+ %VCC- %OUT+ %OUT- %VOCM @MODEL
* CONNECTIONS:      NON-INVERTING INPUT
*                   | INVERTING INPUT
*                   | | POSITIVE POWER SUPPLY
*                   | | | NEGATIVE POWER SUPPLY
*                   | | | | OUTPUT +
*                   | | | | | OUTPUT -
*                   | | | | | |  VOCM
*                   | | | | | |  |
.SUBCKT THS4131     1 2 3 4 5 5b 17 
*
* INPUT *
 Q1          27 1  28 NPN_IN 2
 Q2          25 2  29 NPN_IN 2
 R2          26  29  15  
 R1          26  28  15  
* SECOND STAGE *
 Q3          07 Vref  27 PNP 2
 Q4          09 Vref  25 PNP 2
 Q5          07  105  06 NPN 1
 Q7          09  105  08 NPN 1
 R3           4  06  333  
 R4           4  08  333  
 Cc           0  09  25.5p  
 Ccb          0  07  25.5p  
* HIGH FREQUENCY SHAPING *
 Ehf          34 0  09 0 1
 Lhf          34  35  7n  
 Rhf          102  35  25  
 Chf         0  102  23p  
 Ehfb          24 0  07 0 1
 Lhfb          24  33  7n  
 Rhfb          12  33  25  
 Chfb         0  12  23p  
* OUTPUT *
 Q8          102  102  103 PNP 1
 Q9          102  102  104 NPN 1
 Q10         3  103  30 NPN 5
 Q11         4  104  31 PNP 7.5
 R5          5 30  4  
 R7          31  5  4  
 Q8b          12  12  13 PNP 1
 Q9b          12  12  15 NPN 1
 Q10b         3  13  22 NPN 5
 Q11b         4  15  23 PNP 7.5
 R5b          5b  22  4  
 R7b          23  5b  4  
* Vcm ERROR AMP *
  Gcm          0 105  16  17b 1e-4
  Vcm		   17 17b 285e-3
  Rtop         17 3 30k
  Rbot         17 4 30k   
  Rcm          16 5  10k  
  Ccm          16 5b  100p  
  Rcm2         16 5b  10k  
  Ccm2         16 5  100p  
* BIAS SOURCES *
 V1         3 Vref 1.85
 I1         3 27 DC 2.1e-3  
 I2         3 25 DC 2.1e-3  
 I3         0 103 DC 1.225e-3  
 I4         26 4 DC 2.1e-3  
 I5         104 0 DC 1.86e-3  
 I6         0 13 DC 1.225e-3  
 I7         15 0 DC 1.86e-3  
 
.MODEL NPN_IN NPN
+ IS=170E-18 BF=400 NF=1 VAF=100 IKF=0.0389 ISE=7.6E-18
+ NE=1.13489 BR=1.11868 NR=1 VAR=4.46837 IKR=8 ISC=8E-15
+ NC=1.8 RB=25 RE=0.1220 RC=20 CJE=120.2E-15 VJE=1.0888 MJE=0.381406
+ VJC=0.589703 MJC=0.265838 FC=0.1 CJC=133.8E-15 XTF=272.204 TF=12.13E-12
+ VTF=10 ITF=0.147 TR=3E-09 XTB=1 XTI=5 KF=7.5E-14
.MODEL NPN NPN
+ IS=170E-18 BF=100 NF=1 VAF=100 IKF=0.0389 ISE=7.6E-18
+ NE=1.13489 BR=1.11868 NR=1 VAR=4.46837 IKR=8 ISC=8E-15
+ NC=1.8 RB=250 RE=0.1220 RC=200 CJE=120.2E-15 VJE=1.0888 MJE=0.381406
+ VJC=0.589703 MJC=0.265838 FC=0.1 CJC=133.8E-15 XTF=272.204 TF=12.13E-12
+ VTF=10 ITF=0.147 TR=3E-09 XTB=1 XTI=5
.MODEL PNP PNP
+ IS=296E-18 BF=100 NF=1 VAF=100 IKF=0.021 ISE=494E-18
+ NE=1.49168 BR=0.491925 NR=1 VAR=2.35634 IKR=8 ISC=8E-15
+ NC=1.8 RB=250 RE=0.1220 RC=200 CJE=120.2E-15 VJE=0.940007 MJE=0.55
+ VJC=0.588526 MJC=0.55 FC=0.1 CJC=133.8E-15 XTF=141.135 TF=12.13E-12
+ VTF=6.82756 ITF=0.267 TR=3E-09 XTB=1 XTI=5
.ENDS
*$
* PSpice Model Editor - Version 9.2
*$
* ------------------------------------------------------------------------
*|(C) Copyright Texas Instruments Incorporated 2007. All rights reserved. |
*|                                                                        |
*|This Model is designed as an aid for customers of Texas Instruments.    |
*|No warranties, either expressed or implied, with respect to this Model  |
*|or its fitness for a particular purpose is claimed by Texas Instruments |
*|or the author.  The Model is licensed solely on an "as is" basis.  The  |
*|entire risk as to its quality and performance is with the customer.     |
* ------------------------------------------------------------------------
*
* THS4140 SUBCIRCUIT
* FULLY DIFFERENTIAL HIGH SPEED MONLITHIC OPERATIONAL AMPLIFIER
* WRITTEN 9/18/00
* TEMPLATE=X^@REFDES %IN+ %IN- %VCC+ %VCC- %OUT+ %OUT- %VOCM @MODEL
* CONNECTIONS:      NON-INVERTING INPUT
*                   | INVERTING INPUT
*                   | | POSITIVE POWER SUPPLY
*                   | | | NEGATIVE POWER SUPPLY
*                   | | | | OUTPUT +
*                   | | | | | OUTPUT -
*                   | | | | | |  VOCM
*                   | | | | | |  |
.SUBCKT THS4140     1 2 3 4 5 5b 17
*
* INPUT *
Q1          27 1  28 NPN_IN 2
Q2          25 2  29 NPN_IN 2
R2          26  29  250
R1          26  28  250
* SECOND STAGE *
Q3          07 Vref  27 PNP 2
Q4          09 Vref  25 PNP 2
Q5          07  105  06 NPN 1
Q7          09  105  08 NPN 1
R3           4  06  333
R4           4  08  333
Cc           0  09  3.75p
Ccb          0  07  3.75p
* HIGH FREQUENCY SHAPING *
Ehf          34 0  09 0 1
Lhf          34  35  5n
Rhf          102  35  25
Chf         0  102  18p
Ehfb          24 0  07 0 1
Lhfb          24  33  5n
Rhfb          12  33  25
Chfb         0  12  18p
* OUTPUT *
Q8          102  102  103 PNP 1
Q9          102  102  104 NPN 1
Q10         3  103  30 NPN 5
Q11         4  104  31 PNP 7.5
R5          5 30  4
R7          31  5  4
Q8b          12  12  13 PNP 1
Q9b          12  12  15 NPN 1
Q10b         3  13  22 NPN 5
Q11b         4  15  23 PNP 7.5
R5b          5b  22  4
R7b          23  5b  4
* Vcm ERROR AMP *
Gcm          0 105  16  17b 1e-4
Vcm     17 17b 285e-3
Rtop         17 3 30k
Rbot         17 4 30k
Rcm          16 5  10k
Ccm          16 5b  100p
Rcm2         16 5b  10k
Ccm2         16 5  100p
* BIAS SOURCES *
V1         3 Vref 1.85
I1         3 27 DC 2.1e-3
I2         3 25 DC 2.1e-3
I3         0 103 DC 1.225e-3
I4         26 4 DC 2.1e-3
I5         104 0 DC 1.86e-3
I6         0 13 DC 1.225e-3
I7         15 0 DC 1.86e-3
.MODEL NPN_IN NPN
+ IS=170E-18 BF=400 NF=1 VAF=100 IKF=0.0389 ISE=7.6E-18
+ NE=1.13489 BR=1.11868 NR=1 VAR=4.46837 IKR=8 ISC=8E-15
+ NC=1.8 RB=25 RE=0.1220 RC=20 CJE=120.2E-15 VJE=1.0888 MJE=0.381406
+ VJC=0.589703 MJC=0.265838 FC=0.1 CJC=133.8E-15 XTF=272.204 TF=12.13E-12
+ VTF=10 ITF=0.147 TR=3E-09 XTB=1 XTI=5 KF=2.5E-14
.MODEL NPN NPN
+ IS=170E-18 BF=100 NF=1 VAF=100 IKF=0.0389 ISE=7.6E-18
+ NE=1.13489 BR=1.11868 NR=1 VAR=4.46837 IKR=8 ISC=8E-15
+ NC=1.8 RB=250 RE=0.1220 RC=200 CJE=120.2E-15 VJE=1.0888 MJE=0.381406
+ VJC=0.589703 MJC=0.265838 FC=0.1 CJC=133.8E-15 XTF=272.204 TF=12.13E-12
+ VTF=10 ITF=0.147 TR=3E-09 XTB=1 XTI=5
.MODEL PNP PNP
+ IS=296E-18 BF=100 NF=1 VAF=100 IKF=0.021 ISE=494E-18
+ NE=1.49168 BR=0.491925 NR=1 VAR=2.35634 IKR=8 ISC=8E-15
+ NC=1.8 RB=250 RE=0.1220 RC=200 CJE=120.2E-15 VJE=0.940007 MJE=0.55
+ VJC=0.588526 MJC=0.55 FC=0.1 CJC=133.8E-15 XTF=141.135 TF=12.13E-12
+ VTF=6.82756 ITF=0.267 TR=3E-09 XTB=1 XTI=5
.ENDS
* ------------------------------------------------------------------------
*|(C) Copyright Texas Instruments Incorporated 2007. All rights reserved. |
*|                                                                        |
*|This Model is designed as an aid for customers of Texas Instruments.    |
*|No warranties, either expressed or implied, with respect to this Model  |
*|or its fitness for a particular purpose is claimed by Texas Instruments |
*|or the author.  The Model is licensed solely on an "as is" basis.  The  |
*|entire risk as to its quality and performance is with the customer.     |
* ------------------------------------------------------------------------
*  
* THS4141 SUBCIRCUIT
* FULLY DIFFERENTIAL HIGH SPEED MONLITHIC OPERATIONAL AMPLIFIER 
* WRITTEN 9/18/00
* TEMPLATE=X^@REFDES %IN+ %IN- %VCC+ %VCC- %OUT+ %OUT- %VOCM @MODEL
* CONNECTIONS:      NON-INVERTING INPUT
*                   | INVERTING INPUT
*                   | | POSITIVE POWER SUPPLY
*                   | | | NEGATIVE POWER SUPPLY
*                   | | | | OUTPUT +
*                   | | | | | OUTPUT -
*                   | | | | | |  VOCM
*                   | | | | | |  |
.SUBCKT THS4141     1 2 3 4 5 5b 17 
*
* INPUT *
 Q1          27 1  28 NPN_IN 2
 Q2          25 2  29 NPN_IN 2
 R2          26  29  250  
 R1          26  28  250  
* SECOND STAGE *
 Q3          07 Vref  27 PNP 2
 Q4          09 Vref  25 PNP 2
 Q5          07  105  06 NPN 1
 Q7          09  105  08 NPN 1
 R3           4  06  333  
 R4           4  08  333  
 Cc           0  09  3.75p  
 Ccb          0  07  3.75p  
* HIGH FREQUENCY SHAPING *
 Ehf          34 0  09 0 1
 Lhf          34  35  5n  
 Rhf          102  35  25  
 Chf         0  102  18p  
 Ehfb          24 0  07 0 1
 Lhfb          24  33  5n  
 Rhfb          12  33  25  
 Chfb         0  12  18p  
* OUTPUT *
 Q8          102  102  103 PNP 1
 Q9          102  102  104 NPN 1
 Q10         3  103  30 NPN 5
 Q11         4  104  31 PNP 7.5
 R5          5 30  4  
 R7          31  5  4  
 Q8b          12  12  13 PNP 1
 Q9b          12  12  15 NPN 1
 Q10b         3  13  22 NPN 5
 Q11b         4  15  23 PNP 7.5
 R5b          5b  22  4  
 R7b          23  5b  4  
* Vcm ERROR AMP *
  Gcm          0 105  16  17b 1e-4
  Vcm		   17 17b 285e-3
  Rtop         17 3 30k
  Rbot         17 4 30k   
  Rcm          16 5  10k  
  Ccm          16 5b  100p  
  Rcm2         16 5b  10k  
  Ccm2         16 5  100p  
* BIAS SOURCES *
 V1         3 Vref 1.85
 I1         3 27 DC 2.1e-3  
 I2         3 25 DC 2.1e-3  
 I3         0 103 DC 1.225e-3  
 I4         26 4 DC 2.1e-3  
 I5         104 0 DC 1.86e-3  
 I6         0 13 DC 1.225e-3  
 I7         15 0 DC 1.86e-3  
 
.MODEL NPN_IN NPN
+ IS=170E-18 BF=400 NF=1 VAF=100 IKF=0.0389 ISE=7.6E-18
+ NE=1.13489 BR=1.11868 NR=1 VAR=4.46837 IKR=8 ISC=8E-15
+ NC=1.8 RB=25 RE=0.1220 RC=20 CJE=120.2E-15 VJE=1.0888 MJE=0.381406
+ VJC=0.589703 MJC=0.265838 FC=0.1 CJC=133.8E-15 XTF=272.204 TF=12.13E-12
+ VTF=10 ITF=0.147 TR=3E-09 XTB=1 XTI=5 KF=2.5E-14
.MODEL NPN NPN
+ IS=170E-18 BF=100 NF=1 VAF=100 IKF=0.0389 ISE=7.6E-18
+ NE=1.13489 BR=1.11868 NR=1 VAR=4.46837 IKR=8 ISC=8E-15
+ NC=1.8 RB=250 RE=0.1220 RC=200 CJE=120.2E-15 VJE=1.0888 MJE=0.381406
+ VJC=0.589703 MJC=0.265838 FC=0.1 CJC=133.8E-15 XTF=272.204 TF=12.13E-12
+ VTF=10 ITF=0.147 TR=3E-09 XTB=1 XTI=5
.MODEL PNP PNP
+ IS=296E-18 BF=100 NF=1 VAF=100 IKF=0.021 ISE=494E-18
+ NE=1.49168 BR=0.491925 NR=1 VAR=2.35634 IKR=8 ISC=8E-15
+ NC=1.8 RB=250 RE=0.1220 RC=200 CJE=120.2E-15 VJE=0.940007 MJE=0.55
+ VJC=0.588526 MJC=0.55 FC=0.1 CJC=133.8E-15 XTF=141.135 TF=12.13E-12
+ VTF=6.82756 ITF=0.267 TR=3E-09 XTB=1 XTI=5
.ENDS
*$
* PSpice Model Editor - Version 9.2
*$
* ------------------------------------------------------------------------
*|(C) Copyright Texas Instruments Incorporated 2007. All rights reserved. |
*|                                                                        |
*|This Model is designed as an aid for customers of Texas Instruments.    |
*|No warranties, either expressed or implied, with respect to this Model  |
*|or its fitness for a particular purpose is claimed by Texas Instruments |
*|or the author.  The Model is licensed solely on an "as is" basis.  The  |
*|entire risk as to its quality and performance is with the customer.     |
* ------------------------------------------------------------------------
*
* THS4150 SUBCIRCUIT
* FULLY DIFFERENTIAL HIGH SPEED MONLITHIC OPERATIONAL AMPLIFIER
* WRITTEN 2/19/01
* TEMPLATE=X^@REFDES %IN+ %IN- %VCC+ %VCC- %OUT+ %OUT- %VOCM @MODEL
* CONNECTIONS:      NON-INVERTING INPUT
*                   | INVERTING INPUT
*                   | | POSITIVE POWER SUPPLY
*                   | | | NEGATIVE POWER SUPPLY
*                   | | | | OUTPUT +
*                   | | | | | OUTPUT -
*                   | | | | | |  VOCM
*                   | | | | | |  |
.SUBCKT THS4150     1 2 3 4 5 5b 17
*
* INPUT *
Q1          27 1  28 NPN_IN 2
Q2          25 2  29 NPN_IN 2
R2          26  29  300
R1          26  28  300
* SECOND STAGE *
Q3          07 Vref  27 PNP 2
Q4          09 Vref  25 PNP 2
Q5          07  105  06 NPN 1
Q7          09  105  08 NPN 1
R3           4  06  333
R4           4  08  333
Cc           0  09  3.5p
Ccb          0  07  3.5p
* HIGH FREQUENCY SHAPING *
Ehf          34 0  09 0 1
Lhf          34  35  8n
Rhf          102  35  25
Chf         0  102  25p
Ehfb          24 0  07 0 1
Lhfb          24  33  8n
Rhfb          12  33  25
Chfb         0  12  25p
* OUTPUT *
Q8          102  102  103 PNP 1
Q9          102  102  104 NPN 1
Q10         3  103  30 NPN 5
Q11         4  104  31 PNP 7.5
R5          5 30  4
R7          31  5  4
Q8b          12  12  13 PNP 1
Q9b          12  12  15 NPN 1
Q10b         3  13  22 NPN 5
Q11b         4  15  23 PNP 7.5
R5b          5b  22  4
R7b          23  5b  4
* Vcm ERROR AMP *
Gcm          0 105  16  17b 1e-4
Vcm     17 17b 345e-3
Rtop         17 3 30k
Rbot         17 4 30k
Rcm          16 5  10k
Ccm          16 5b  100p
Rcm2         16 5b  10k
Ccm2         16 5  100p
* BIAS SOURCES *
V1         3 Vref 1.85
I1         3 27 DC 2.6e-3
I2         3 25 DC 2.6e-3