*
* INA103E = A1_103E + A2_103E + A3_103E OP AMPS + PRECISION RESISTOR NETWORK
* CREATED ON 10/30/90 AT 15:01
*
* REV.B 3/21/92 BCB: added input bias current correction
* REV.C  18 JUNE 97 NPA: MOVED LEGAL DISCLAIMER TO BEGINNING OF FILE
* ------------------------------------------------------------------------
*|(C) Copyright Texas Instruments Incorporated 2007. All rights reserved. |
*|                                                                        |
*|This Model is designed as an aid for customers of Texas Instruments.    |
*|No warranties, either expressed or implied, with respect to this Model  |
*|or its fitness for a particular purpose is claimed by Texas Instruments |
*|or the author.  The Model is licensed solely on an "as is" basis.  The  |
*|entire risk as to its quality and performance is with the customer.     |
* ------------------------------------------------------------------------
*
***** INA103E SUB-CIRCUIT
* CONNECTIONS:          NON-INVERTING INPUT
*                       |   INVERTING INPUT
*                       |   |   POSITIVE POWER SUPPLY
*                       |   |   |   NEGATIVE POWER SUPPLY
*                       |   |   |   |   OUTPUT
*                       |   |   |   |   |   REFERENCE
*                       |   |   |   |   |   |   GAIN SENSE 1
*                       |   |   |   |   |   |   |   GAIN SENSE 2
*                       |   |   |   |   |   |   |   |
.SUBCKT INA103E         1   2   3   4   5   8   9  10
*
***** A1_103E SUB-CIRCUIT
* CONNECTIONS:          NON-INVERTING INPUT
*                       |   INVERTING INPUT
*                       |   |   POSITIVE POWER SUPPLY
*                       |   |   |   NEGATIVE POWER SUPPLY
*                       |   |   |   |   OUTPUT
*                       |   |   |   |   |
X1                     15  17   3   4  11   A1_103E
*
***** A2_103E SUB-CIRCUIT
* CONNECTIONS:          NON-INVERTING INPUT
*                       |   INVERTING INPUT
*                       |   |   POSITIVE POWER SUPPLY
*                       |   |   |   NEGATIVE POWER SUPPLY
*                       |   |   |   |   OUTPUT
*                       |   |   |   |   |
X2                     15  16   3   4  12   A2_103E
*
***** A3_103E SUB-CIRCUIT
* CONNECTIONS:          NON-INVERTING INPUT
*                       |   INVERTING INPUT
*                       |   |   POSITIVE POWER SUPPLY
*                       |   |   |   NEGATIVE POWER SUPPLY
*                       |   |   |   |   OUTPUT
*                       |   |   |   |   |
X3                     14  13   3   4   5   A3_103E
*
R1    11  13   6.0000K
R2    13   5   5.9994K
C2    13   5   2.0000PF
R3    12  14   6.0000K
R4    14   8   6.0000K
*
R1FB   9  11   3.0000K
CC1   17  11  35.0000PF
R2FB  10  12   3.0000K
CC2   16  12  35.0000PF
*
RCE   17   9   75MEG
*
I1     3  16  DC  1.300E-3
I2     3  17  DC  1.300E-3
I3    10   4  DC  1.300E-3
I4     9   4  DC  1.300E-3
*
D1    17  15      DX
D2    16  15      DX
*
Q1    16   1  10  QX
Q2    17   2   9  QX
*
V1     3  15  DC  2.000
*
C1CM   1   0   2.5PF
C2CM   2   0   2.5PF
CDIF   1   2   2.0PF
*
.MODEL DX D(IS=1.0E-24)
.MODEL QX NPN(IS=800.0E-18 BF=500)
.ENDS
* A1_103E OPERATIONAL AMPLIFIER "MACROMODEL" SUBCIRCUIT
* "E" IS ENHANCED MODEL
* CREATED USING PARTS RELEASE 4.03 ON 11/13/90 AT 14:01
*
* CONNECTIONS:   NON-INVERTING INPUT
*                | INVERTING INPUT
*                | | POSITIVE POWER SUPPLY
*                | | | NEGATIVE POWER SUPPLY
*                | | | | OUTPUT
*                | | | | |
.SUBCKT A1_103E  1 2 3 4 5
*
C1   11 12 2.098E-12
C2    6  7 5.000E-12
DC    5 53 DX
DE   54  5 DX
DLP  90 91 DX
DLN  92 90 DX
DP    4  3 DX
EGND 99  0 POLY(2) (3,0) (4,0) 0 .5 .5
FB    7 99 POLY(5) VB VC VE VLP VLN 0 2.653E6 -3E6 3E6 3E6 -3E6
GA    6  0 11 12 188.5E-6
GCM   0  6 10 99 2.987E-9
ISS   3 10 DC 100.0E-6
HLIM 90  0 VLIM 1K
J1   11  2 10 JX
J2   12  1 10 JX
G11 2 4 POLY(3) (10,2) (11,2) (4,2) 0 1E-12 1E-12 1E-12
G21 1 4 POLY(3) (10,1) (12,1) (4,1) 0 1E-12 1E-12 1E-12
R2    6  9 100.0E3
RD1   4 11 5.305E3
RD2   4 12 5.305E3
RO1   8  5 20
RO2   7 99 20
*  RP    3  4 14.06E3
RSS  10 99 2.000E6
VB    9  0 DC 0
VC    3 53 DC 3
VE   54  4 DC 3
VLIM  7  8 DC 0
VLP  91  0 DC 50
VLN   0 92 DC 50
****************************
* A1_103 "E" - ENHANCEMENTS
****************************
* OUTPUT SUPPLY MIRROR
FQ3   0 20 POLY(1) VLIM 0  1
DQ1  20 21 DX
DQ2  22 20 DX
VQ1  21  0 0
VQ2  22  0 0
FQ1   3  0 POLY(1) VQ1  1.70E-3  1
FQ2   0  4 POLY(1) VQ2  1.70E-3 -1
* QUIESCIENT CURRENT
RQ    3  4  9.0E4
* DIFF INPUT CAPACITANCE
CDIF  1  2  1.0E-12
* COMMON MODE INPUT CAPACITANCE
C1CM  1  99 1.5E-12
C2CM  2  99 1.5E-12
****************************
.MODEL DX D(IS=800.0E-18)
.MODEL JX PJF(IS=2.500E-12 BETA=177.7E-6 VTO=-1)
.ENDS
* A2_103E OPERATIONAL AMPLIFIER "MACROMODEL" SUBCIRCUIT
* "E" IS ENHANCED MODEL
* CREATED USING PARTS RELEASE 4.03 ON 11/13/90 AT 11:47
*
* CONNECTIONS:   NON-INVERTING INPUT
*                | INVERTING INPUT
*                | | POSITIVE POWER SUPPLY
*                | | | NEGATIVE POWER SUPPLY
*                | | | | OUTPUT
*                | | | | |
.SUBCKT A2_103E  1 2 3 4 5
*
C1   11 12 2.098E-12
C2    6  7 5.000E-12
DC    5 53 DX
DE   54  5 DX
DLP  90 91 DX
DLN  92 90 DX
DP    4  3 DX
EGND 99  0 POLY(2) (3,0) (4,0) 0 .5 .5
FB    7 99 POLY(5) VB VC VE VLP VLN 0 2.653E6 -3E6 3E6 3E6 -3E6
GA    6  0 11 12 188.5E-6
GCM   0  6 10 99 2.987E-9
ISS   3 10 DC 100.0E-6
HLIM 90  0 VLIM 1K
J1   11  2 10 JX
J2   12  1 10 JX
G11 2 4 POLY(3) (10,2) (11,2) (4,2) 0 1E-12 1E-12 1E-12
G21 1 4 POLY(3) (10,1) (12,1) (4,1) 0 1E-12 1E-12 1E-12
R2    6  9 100.0E3
RD1   4 11 5.305E3
RD2   4 12 5.305E3
RO1   8  5 20
RO2   7 99 20
*  RP    3  4 14.06E3
RSS  10 99 2.000E6
VB    9  0 DC 0
VC    3 53 DC 3
VE   54  4 DC 3
VLIM  7  8 DC 0
VLP  91  0 DC 50
VLN   0 92 DC 50
****************************
* A2_103 "E" - ENHANCEMENTS
****************************
* OUTPUT SUPPLY MIRROR
FQ3   0 20 POLY(1) VLIM 0  1
DQ1  20 21 DX
DQ2  22 20 DX
VQ1  21  0 0
VQ2  22  0 0
FQ1   3  0 POLY(1) VQ1  1.70E-3  1
FQ2   0  4 POLY(1) VQ2  1.70E-3 -1
* QUIESCIENT CURRENT
RQ    3  4  9.0E4
* DIFF INPUT CAPACITANCE
CDIF  1  2  1.0E-12
* COMMON MODE INPUT CAPACITANCE
C1CM  1  99 1.5E-12
C2CM  2  99 1.5E-12
****************************
.MODEL DX D(IS=800.0E-18)
.MODEL JX PJF(IS=2.500E-12 BETA=177.7E-6 VTO=-1)
.ENDS
* A3_103E OPERATIONAL AMPLIFIER "MACROMODEL" SUBCIRCUIT
* "E" IS ENHANCED MODEL
* CREATED USING PARTS RELEASE 4.03 ON 11/09/90 AT 10:20
*
* CONNECTIONS:   NON-INVERTING INPUT
*                | INVERTING INPUT
*                | | POSITIVE POWER SUPPLY
*                | | | NEGATIVE POWER SUPPLY
*                | | | | OUTPUT
*                | | | | |
.SUBCKT A3_103E  1 2 3 4 5
*
C1   11 12 3.356E-12
C2    6  7 8.000E-12
DC    5 53 DX
DE   54  5 DX
DLP  90 91 DX
DLN  92 90 DX
DP    4  3 DX
EGND 99  0 POLY(2) (3,0) (4,0) 0 .5 .5
FB    7 99 POLY(5) VB VC VE VLP VLN 0 16.62E6 -20E6 20E6 20E6 -20E6
GA    6  0 11 12 301.6E-6
GCM   0  6 10 99 4.780E-9
ISS   3 10 DC 160.0E-6
HLIM 90  0 VLIM 1K
J1   11  2 10 JX
J2   12  1 10 JX
G11 2 4 POLY(3) (10,2) (11,2) (4,2) 0 1E-12 1E-12 1E-12
G21 1 4 POLY(3) (10,1) (12,1) (4,1) 0 1E-12 1E-12 1E-12
R2    6  9 100.0E3
RD1   4 11 3.316E3
RD2   4 12 3.316E3
RO1   8  5 10
RO2   7 99 10
*  RP    3  4 14.06E3
RSS  10 99 1.250E6
VB    9  0 DC 0
VC    3 53 DC 3
VE   54  4 DC 3
VLIM  7  8 DC 0
VLP  91  0 DC 70
VLN   0 92 DC 70
****************************
* A3_103 "E" - ENHANCEMENTS
****************************
* OUTPUT SUPPLY MIRROR
FQ3   0 20 POLY(1) VLIM 0  1
DQ1  20 21 DX
DQ2  22 20 DX
VQ1  21  0 0
VQ2  22  0 0
FQ1   3  0 POLY(1) VQ1  1.64E-3  1
FQ2   0  4 POLY(1) VQ2  1.64E-3 -1
* QUIESCIENT CURRENT
RQ    3  4  9.0E4
* DIFF INPUT CAPACITANCE
CDIF  1  2  1.0E-12
* COMMON MODE INPUT CAPACITANCE
C1CM  1  99 1.5E-12
C2CM  2  99 1.5E-12
****************************
.MODEL DX D(IS=800.0E-18)
.MODEL JX PJF(IS=2.500E-12 BETA=284.3E-6 VTO=-1)
.ENDS
*.ENDS INA103E
*
*
* INA111Z = A1_111Z + A2_111Z + A3_111Z OP AMPS + PRECISION RESISTOR NETWORK
* "Z" IS ENHANCED MODEL
* CREATED ON 12/1/92 AT 10:00 HB
* REV.A
* REV.B  13 June 97 NPA: Changed "E" to "Z" to correct run error
* REV.C  18 JUNE 97 NPA: MOVED LEGAL DISCLAIMER TO BEGINNING OF FILE
* ------------------------------------------------------------------------
*|(C) Copyright Texas Instruments Incorporated 2007. All rights reserved. |
*|                                                                        |
*|This Model is designed as an aid for customers of Texas Instruments.    |
*|No warranties, either expressed or implied, with respect to this Model  |
*|or its fitness for a particular purpose is claimed by Texas Instruments |
*|or the author.  The Model is licensed solely on an "as is" basis.  The  |
*|entire risk as to its quality and performance is with the customer.     |
* ------------------------------------------------------------------------
*
*
***** INA111Z SUB-CIRCUIT
* CONNECTIONS:          NON-INVERTING INPUT
*                       |   INVERTING INPUT
*                       |   |   POSITIVE POWER SUPPLY
*                       |   |   |   NEGATIVE POWER SUPPLY
*                       |   |   |   |   OUTPUT
*                       |   |   |   |   |   REFERENCE
*                       |   |   |   |   |   |   GAIN SENSE 1
*                       |   |   |   |   |   |   |   GAIN SENSE 2
*                       |   |   |   |   |   |   |   |
.SUBCKT INA111Z         1   2   3   4   5   8   9  10
*
***** A1_111Z SUB-CIRCUIT
* CONNECTIONS:          NON-INVERTING INPUT
*                       |   INVERTING INPUT
*                       |   |   POSITIVE POWER SUPPLY
*                       |   |   |   NEGATIVE POWER SUPPLY
*                       |   |   |   |   OUTPUT
*                       |   |   |   |   |
X1                     15  17   3   4  11   A1_111Z
***** A2_111Z SUB-CIRCUIT
* CONNECTIONS:          NON-INVERTING INPUT
*                       |   INVERTING INPUT
*                       |   |   POSITIVE POWER SUPPLY
*                       |   |   |   NEGATIVE POWER SUPPLY
*                       |   |   |   |   OUTPUT
*                       |   |   |   |   |
X2                     15  16   3   4  12   A2_111Z
*
***** A3_111Z SUB-CIRCUIT
* CONNECTIONS:          NON-INVERTING INPUT
*                       |   INVERTING INPUT
*                       |   |   POSITIVE POWER SUPPLY
*                       |   |   |   NEGATIVE POWER SUPPLY
*                       |   |   |   |   OUTPUT
*                       |   |   |   |   |
X3                     14  13   3   4   5   A3_111Z
*
R1    11  13   10.0000E3
R3    12  14   10.0000E3
R2    13   5    9.9993E3
R4    14   8   10.0000E3
C2    13   5    6.0000E-12
C4    14   8    5.0000E-12
*
R1FB   9  11   25.0000E3
R2FB  10  12   25.0000E3
CC1   17  11   5.0000E-12
CC2   16  12   5.5000E-12
*
RCE   17   9   400E6
*
I1     3  16  DC  50.00E-6
I2     3  17  DC  50.00E-6
I3    10   4  DC  50.00E-6
I4     9   4  DC  50.00E-6
I5     3  21  DC 200.00E-6
I6     3  22  DC 200.00E-6
*
CG1    9   0  13.5000E-12
CG2   10   0  12.0000E-12
*
D1    17  15      DX
D2    16  15      DX
*
Q1    16  21  10  QX
Q2    17  22   9  QX
*
J1     4   1  21  JX
J2     4   2  22  JX
*
V1     3  15  DC  3.000
*
C1CM   1   0   1.0E-12
C2CM   2   0   1.0E-12
CDIF   1   2   6.0E-12
*
.MODEL DX D(IS=1.0E-24)
.MODEL QX NPN(IS=800.0E-18 BF=500)
.MODEL JX PJF(IS=10.00E-12 BETA=500.0E-6 VTO=-1)
.ENDS
* A1_111Z OPERATIONAL AMPLIFIER "MACROMODEL" SUBCIRCUIT
* "Z" IS ENHANCED MODEL
* CREATED USING PARTS RELEASE 4.03 ON 11/1/92 AT 10:00
*
* CONNECTIONS:   NON-INVERTING INPUT
*                | INVERTING INPUT
*                | | POSITIVE POWER SUPPLY
*                | | | NEGATIVE POWER SUPPLY
*                | | | | OUTPUT
*                | | | | |
.SUBCKT A1_111Z  1 2 3 4 5
*
C1   11 12 1.443E-12
C2    6  7 5.000E-12
DC    5 53 DX
DE   54  5 DX
DLP  90 91 DX
DLN  92 90 DX
DP    4  3 DX
EGND 99  0 POLY(2) (3,0) (4,0) 0 .5 .5
FB    7 99 POLY(5) VB VC VE VLP VLN 0 2.653E3 -3E3 3E3 3E3 -3E3
GA    6  0 11 12 628.3E-6
GCM   0  6 10 99 6.283E-6
ISS   3 10 DC 250.0E-6
HLIM 90  0 VLIM 1E3
J1   11  2 10 JX
J2   12  1 10 JX
R2    6  9 100.0E3
RD1   4 11 1.592E3
RD2   4 12 1.592E3
RO1   8  5 60
RO2   7 99 60
*  RP    3  4 37.50E3
RSS  10 99 800.0E3
VB    9  0 DC 0
VC    3 53 DC 2
VE   54  4 DC 1
VLIM  7  8 DC 0
VLP  91  0 DC 60
VLN   0 92 DC 60
****************************
* A1_111 "Z" - ENHANCEMENTS
****************************
* OUTPUT SUPPLY MIRROR
FQ3   0 20 POLY(1) VLIM 0  1
DQ1  20 21 DX
DQ2  22 20 DX
VQ1  21  0 0
VQ2  22  0 0
FQ1   3  0 POLY(1) VQ1  4.16E-4  1
FQ2   0  4 POLY(1) VQ2  4.16E-4 -1
* QUIESCIENT CURRENT
RQ    3  4  2.25E5
* DIFF INPUT CAPACITANCE
CDIF  1  2  1.0E-12
* COMMON MODE INPUT CAPACITANCE
C1CM  1  99 1.0E-12
C2CM  2  99 1.0E-12
****************************
.MODEL DX D(IS=800.0E-18)
.MODEL JX PJF(IS=5.000E-12 BETA=789.5E-6 VTO=-1)
.ENDS
* A2_111Z OPERATIONAL AMPLIFIER "MACROMODEL" SUBCIRCUIT
* "Z" IS ENHANCED MODEL
* CREATED USING PARTS RELEASE 4.03 ON 11/1/92 AT 10:00
*
* CONNECTIONS:   NON-INVERTING INPUT
*                | INVERTING INPUT
*                | | POSITIVE POWER SUPPLY
*                | | | NEGATIVE POWER SUPPLY
*                | | | | OUTPUT
*                | | | | |
.SUBCKT A2_111Z  1 2 3 4 5
*
C1   11 12 1.443E-12
C2    6  7 5.000E-12
DC    5 53 DX
DE   54  5 DX
DLP  90 91 DX
DLN  92 90 DX
DP    4  3 DX
EGND 99  0 POLY(2) (3,0) (4,0) 0 .5 .5
FB    7 99 POLY(5) VB VC VE VLP VLN 0 2.653E3 -3E3 3E3 3E3 -3E3
GA    6  0 11 12 628.3E-6
GCM   0  6 10 99 6.283E-6
ISS   3 10 DC 250.0E-6
HLIM 90  0 VLIM 1E3
J1   11  2 10 JX
J2   12  1 10 JX
R2    6  9 100.0E3
RD1   4 11 1.592E3
RD2   4 12 1.592E3
RO1   8  5 60
RO2   7 99 60
*  RP    3  4 37.50E3
RSS  10 99 800.0E3
VB    9  0 DC 0
VC    3 53 DC 2
VE   54  4 DC 1
VLIM  7  8 DC 0
VLP  91  0 DC 60
VLN   0 92 DC 60
****************************
* A2_111 "Z" - ENHANCEMENTS
****************************
* OUTPUT SUPPLY MIRROR
FQ3   0 20 POLY(1) VLIM 0  1
DQ1  20 21 DX
DQ2  22 20 DX
VQ1  21  0 0
VQ2  22  0 0
FQ1   3  0 POLY(1) VQ1  4.16E-4  1
FQ2   0  4 POLY(1) VQ2  4.16E-4 -1
* QUIESCIENT CURRENT
RQ    3  4  2.25E5
* DIFF INPUT CAPACITANCE
CDIF  1  2  1.0E-12
* COMMON MODE INPUT CAPACITANCE
C1CM  1  99 1.0E-12
C2CM  2  99 1.0E-12
****************************
.MODEL DX D(IS=800.0E-18)
.MODEL JX PJF(IS=5.000E-12 BETA=789.5E-6 VTO=-1)
.ENDS
* A3_111Z OPERATIONAL AMPLIFIER "MACROMODEL" SUBCIRCUIT
* "Z" IS ENHANCED MODEL
* CREATED USING PARTS RELEASE 4.03 ON 11/1/92 AT 10:00
*
* CONNECTIONS:   NON-INVERTING INPUT
*                | INVERTING INPUT
*                | | POSITIVE POWER SUPPLY
*                | | | NEGATIVE POWER SUPPLY
*                | | | | OUTPUT
*                | | | | |
.SUBCKT A3_111Z  1 2 3 4 5
*
C1   11 12 7.151E-12
C2    6  7 12.00E-12
DC    5 53 DX
DE   54  5 DX
DLP  90 91 DX
DLN  92 90 DX
DP    4  3 DX
EGND 99  0 POLY(2) (3,0) (4,0) 0 .5 .5
FB    7 99 POLY(5) VB VC VE VLP VLN 0 27.96E6 -30E6 30E6 30E6 -30E6
GA    6  0 11 12 377.0E-6
GCM   0  6 10 99 1.889E-9
ISS   3 10 DC 240.0E-6
HLIM 90  0 VLIM 1E3
J1   11  2 10 JX
J2   12  1 10 JX
R2    6  9 100.0E3
RD1   4 11 2.653E3
RD2   4 12 2.653E3
RO1   8  5 30
RO2   7 99 30
*  RP    3  4 37.50E3
RSSS  10 99 833.3E3
VB    9  0 DC 0
VC    3 53 DC 2.300
VE   54  4 DC 2.300
VLIM  7  8 DC 0
VLP  91  0 DC 25
VLN   0 92 DC 25
****************************
* A3_111 "Z" - ENHANCEMENTS
****************************
* OUTPUT SUPPLY MIRROR
FQ3   0 20 POLY(1) VLIM 0  1
DQ1  20 21 DX
DQ2  22 20 DX
VQ1  21  0 0
VQ2  22  0 0
FQ1   3  0 POLY(1) VQ1  4.264E-4  1
FQ2   0  4 POLY(1) VQ2  4.264E-4 -1
* QUIESCIENT CURRENT
RQ    3  4  2.25E5
* DIFF INPUT CAPACITANCE
CDIF  1  2  1.0E-12
* COMMON MODE INPUT CAPACITANCE
C1CM  1  99 1.0E-12
C2CM  2  99 1.0E-12
****************************
.MODEL DX D(IS=800.0E-18)
.MODEL JX PJF(IS=5.000E-12 BETA=296.0E-6 VTO=-1)
.ENDS
*ENDS INA111Z
*
* INA114E = A1_114E + A2_114E + A3_114E OP AMPS + PRECISION RESISTOR NETWORK
* CREATED ON 1/30/92 AT 4:30PM
* REV.A
* REV.B  18 JUNE 97 NPA: MOVED LEGAL DISCLAIMER TO BEGINNING OF FILE
*
* NOTE:  THE OUTPUT PERFORMANCE OF THE MACRO MODEL WILL BE ERRONEOUS IF
*        NODE 6 (FEEDBACK) IS NOT CONNECTED PROPERLY.
* ------------------------------------------------------------------------
*|(C) Copyright Texas Instruments Incorporated 2007. All rights reserved. |
*|                                                                        |
*|This Model is designed as an aid for customers of Texas Instruments.    |
*|No warranties, either expressed or implied, with respect to this Model  |
*|or its fitness for a particular purpose is claimed by Texas Instruments |
*|or the author.  The Model is licensed solely on an "as is" basis.  The  |
*|entire risk as to its quality and performance is with the customer.     |
* ------------------------------------------------------------------------
* 
***** INA114E SUB-CIRCUIT
* CONNECTIONS:    NON-INVERTING INPUT
*                 |   INVERTING INPUT
*                 |   |   POSITIVE POWER SUPPLY
*                 |   |   |   NEGATIVE POWER SUPPLY
*                 |   |   |   |   OUTPUT
*                 |   |   |   |   |   FEEDBACK
*                 |   |   |   |   |   |    REFERENCE
*                 |   |   |   |   |   |   |   GAIN SET 1
*                 |   |   |   |   |   |   |   |   GAIN SET 2
*                 |   |   |   |   |   |   |   |   |
.SUBCKT INA114E   1   2   3   4   5   6   8   9   10
*
***** A1_114E SUBCIRCUIT
* CONNECTIONS:    NON-INVERTING INPUT
*                 |   INVERTING INPUT
*                 |   |   POSITIVE POWER SUPPLY
*                 |   |   |   NEGATIVE POWER SUPPLY
*                 |   |   |   |   OUTPUT
*                 |   |   |   |   |
X1                2   9   3   4   11   A1_114E
*
* CONNECTIONS:    NON-INVERTING INPUT
*                 |   INVERTING INPUT
*                 |   |   POSITIVE POWER SUPPLY
*                 |   |   |   NEGATIVE POWER SUPPLY
*                 |   |   |   |   OUTPUT
*                 |   |   |   |   |
X2                1   10  3   4   12   A2_114E
*
* CONNECTIONS:    NON-INVERTING INPUT
*                 |   INVERTING INPUT
*                 |   |   POSITIVE POWER SUPPLY
*                 |   |   |   NEGATIVE POWER SUPPLY
*                 |   |   |   |   OUTPUT
*                 |   |   |   |   |
X3                14  13  3   4   5   A3_114E
*
R1 11 13 25K
R2 13 6 24.9985K
C2 13 6 5P
R3 12 14 25K
R4 14 8 25K
RFB1 9 11 25K
CC1 9 11 5P
RFB2 10 12 25K
CC2 10 12 5P
*
.ENDS
*
* A1_114E OPERATIONAL AMPLIFIER " MACROMODEL" SUBCIRCUIT
* CREATED USING PARTS RELEASE 5.0 ON 1/22/92 AT 13:21
*
* CONNECTIONS:   NON-INVERTING INPUT
*                |   INVERTING INPUT
*                |   |   POSITIVE POWER SUPPLY
*                |   |   |   NEGATIVE POWER SUPPLY
*                |   |   |   |   OUTPUT
*                |   |   |   |   |
.SUBCKT A1_114E  1   2   3   4   5
*
C1 11 12 6.060E-12
C2 6 7 30.00E-12
DC 5 53 DX
DE 54 5 DX
DLP 90 91 DX
DLN 92 90 DX
DP 4 3 DX
EGND 99 0 POLY(2) (3,0) (4,0) 0 .5 .5
FB 7 99 POLY(5) VB VC VE VLP VLN 0 165.8E6 -20E6 20E6 20E6 -20E6
GA 6 0 11 12 188.5E-6
GCM 0 6 10 99 188.5E-12
IEE 10 4 DC 27E-6
HLIM 90 0 VLIM 1K
Q1 11 2 13 QX
Q2 12 1 14 QX
R2 6 9 100.0E3
RC1 3 11 5.305E3
RC2 3 12 5.305E3
RE1 13 10 4.348E3
RE2 14 10 4.348E3
REE 10 99 7.4074E6
RO1 8 5 40
RO2 7 99 320
VB 9 0 DC 0
VC 3 53 DC 1.672
VE 54 4 DC 1.672
VLIM 7 8 DC 0
VLP 91 0 DC 2
VLN 0 92 DC 2
****************************
* A1_114E "E" - ENHANCEMENTS
****************************
* OUTPUT SUPPLY MIRROR
FQ3 0 20 POLY(1) VLIM 0 1
DQ1 20 21 DX
DQ2 22 20 DX
VQ1 21 0 0
VQ2 22 0 0
FQ1 3 0 POLY(1) VQ1 0 1
FQ2 0 4 POLY(1) VQ2 0 -1
* QUIESCIENT CURRENT
RQ 3 4 52.53E3
* DIFF INPUT CAPACITANCE
CDIF 1 2 3E-12
* COMMON MODE INPUT CAPACITANCE
C1CM 1 0 3E-12
C2CM 2 0 3E-12
* INPUT PROTECTION
VS11 3 31 0
FS11 0 3 VS11 1
S11 31 0 1 0 SP
FS12 1 4 VS11 1
VS21 32 4 0
FS21 4 0 VS21 1
S21 0 32 1 0 SM
FS22 3 1 VS21 1
****************************
.MODEL DX D(IS=800.0E-18)
.MODEL QX NPN(IS=800.0E-18 BF=36.00E3 NC=100 NR=100)
.MODEL SP VSWITCH(RON=10K ROFF=100G VON=15.6 VOFF=15.5)
.MODEL SM VSWITCH(RON=10K ROFF=100G VON=-15.6 VOFF=-15.5)
.ENDS
*
* A2_114E OPERATIONAL AMPLIFIER " MACROMODEL" SUBCIRCUIT
* CREATED USING PARTS RELEASE 5.0 ON 1/22/92 AT 13:30
*
* CONNECTIONS:   NON-INVERTING INPUT
*                |   INVERTING INPUT
*                |   |   POSITIVE POWER SUPPLY
*                |   |   | NEGATIVE POWER SUPPLY
*                |   |   |   |   OUTPUT
*                |   |   |   |   |
.SUBCKT A2_114E  1   2   3   4   5
*
C1 11 12 6.060E-12
C2 6 7 30.00E-12
DC 5 53 DX
DE 54 5 DX
DLP 90 91 DX
DLN 92 90 DX
DP 4 3 DX
EGND 99 0 POLY(2) (3,0) (4,0) 0 .5 .5
FB 7 99 POLY(5) VB VC VE VLP VLN 0 165.8E6 -20E6 20E6 20E6 -20E6
GA 6 0 11 12 188.5E-6
GCM 0 6 10 99 188.5E-12
IEE 10 4 DC 27E-6
HLIM 90 0 VLIM 1K
Q1 11 2 13 QX
Q2 12 1 14 QX
R2 6 9 100.0E3
RC1 3 11 5.305E3
RC2 3 12 5.305E3
RE1 13 10 4.348E3
RE2 14 10 4.348E3
REE 10 99 7.4074E6
RO1 8 5 40
RO2 7 99 320
VB 9 0 DC 0
VC 3 53 DC 1.672
VE 54 4 DC 1.672
VLIM 7 8 DC 0
VLP 91 0 DC 2
VLN 0 92 DC 2
****************************
* A2_114E "E" - ENHANCEMENTS
****************************
* OUTPUT SUPPLY MIRROR
FQ3 0 20 POLY(1) VLIM 0 1
DQ1 20 21 DX
DQ2 22 20 DX
VQ1 21 0 0
VQ2 22 0 0
FQ1 3 0 POLY(1) VQ1 0 1
FQ2 0 4 POLY(1) VQ2 0 -1
* QUIESCIENT CURRENT
RQ 3 4 52.53E3
* DIFF INPUT CAPACITANCE
CDIF 1 2 3E-12
* COMMON MODE INPUT CAPACITANCE
C1CM 1 0 3E-12
C2CM 2 0 3E-12
* INPUT PROTECTION
VS11 3 31 0
FS11 0 3 VS11 1
S11 31 0 1 0 SP
FS12 1 4 VS11 1
VS21 32 4 0
FS21 4 0 VS21 1
S21 0 32 1 0 SM
FS22 3 1 VS21 1
****************************
.MODEL DX D(IS=800.0E-18)
.MODEL QX NPN(IS=800.0E-18 BF=36.00E3 NC=100 NR=100)
.MODEL SP VSWITCH(RON=10K ROFF=100G VON=15.6 VOFF=15.5)
.MODEL SM VSWITCH(RON=10K ROFF=100G VON=-15.6 VOFF=-15.5)
.ENDS
*
* A3_114E OPERATIONAL AMPLIFIER " MACROMODEL" SUBCIRCUIT
* CREATED USING PARTS RELEASE 5.0 ON 1/22/92 AT 13:46
*
* CONNECTIONS:   NON-INVERTING INPUT
*                | INVERTING INPUT
*                | | POSITIVE POWER SUPPLY
*                | | | NEGATIVE POWER SUPPLY
*                | | | | OUTPUT
*                | | | | |
.SUBCKT A3_114E  1 2 3 4 5
*
C1 11 12 13.51E-12
C2 6 7 30.00E-12
DC 5 53 DX
DE 54 5 DX
DLP 90 91 DX
DLN 92 90 DX
DP 4 3 DX
EGND 99 0 POLY(2) (3,0) (4,0) 0 .5 .5
FB 7 99 POLY(5) VB VC VE VLP VLN 0 251.9E6 -30E6 30E6 30E6 -30E6
GA 6 0 11 12 339.3E-6
GCM 0 6 10 99 339.3E-12
IEE 10 4 DC 18E-6
HLIM 90 0 VLIM 1K
Q1 11 2 13 QX
Q2 12 1 14 QX
R2 6 9 100.0E3
RC1 3 11 2.947E3
RC2 3 12 2.947E3
RE1 13 10 74.778
RE2 14 10 74.778
REE 10 99 11.111E6
RO1 8 5 13
RO2 7 99 117
VB 9 0 DC 0
VC 3 53 DC 1.972
VE 54 4 DC 1.972
VLIM 7 8 DC 0
VLP 91 0 DC 12
VLN 0 92 DC 12
****************************
* A3_114E "E" - ENHANCEMENTS
****************************
* OUTPUT SUPPLY MIRROR
FQ3 0 20 POLY(1) VLIM 0 1
DQ1 20 21 DX
DQ2 22 20 DX
VQ1 21 0 0
VQ2 22 0 0
FQ1 3 0 POLY(1) VQ1 0 1
FQ2 0 4 POLY(1) VQ2 0 -1
* QUIESCIENT CURRENT
RQ 3 4 30.123E3
* DIFF INPUT CAPACITANCE
CDIF 1 2 10E-12
* COMMON MODE INPUT CAPACITANCE
C1CM 1 0 5E-12
C2CM 2 0 5E-12
****************************
.MODEL DX D(IS=800.0E-18)
.MODEL QX NPN(IS=800.0E-18 BF=30.00E3)
.ENDS
*.ENDS INA114E
*
* INA121E = A1_121E + A2_121E + A3_121E OP AMPS + PRECISION RESISTOR NETWORK
* V.1 CREADTED BY JW 6/4/98
*
* ------------------------------------------------------------------------
*|(C) Copyright Texas Instruments Incorporated 2007. All rights reserved. |
*|                                                                        |
*|This Model is designed as an aid for customers of Texas Instruments.    |
*|No warranties, either expressed or implied, with respect to this Model  |
*|or its fitness for a particular purpose is claimed by Texas Instruments |
*|or the author.  The Model is licensed solely on an "as is" basis.  The  |
*|entire risk as to its quality and performance is with the customer.     |
* ------------------------------------------------------------------------
*
***** INA121E SUB-CIRCUIT
* CONNECTIONS:          NON-INVERTING INPUT
*                       |   INVERTING INPUT
*                       |   |   POSITIVE POWER SUPPLY
*                       |   |   |   NEGATIVE POWER SUPPLY
*                       |   |   |   |   OUTPUT
*                       |   |   |   |   |   REFERENCE
*                       |   |   |   |   |   |   GAIN SENSE 1
*                       |   |   |   |   |   |   |   GAIN SENSE 2
*                       |   |   |   |   |   |   |   |
.SUBCKT INA121E        1   2   3   4   5   8   9  10
*
***** A1_121E SUB-CIRCUIT
* CONNECTIONS:          NON-INVERTING INPUT
*                       |   INVERTING INPUT
*                       |   |   POSITIVE POWER SUPPLY
*                       |   |   |   NEGATIVE POWER SUPPLY
*                       |   |   |   |   OUTPUT
*                       |   |   |   |   |
 X1                    15  17   3   4  11   A1_121E
*
***** A2_121E SUB-CIRCUIT
* CONNECTIONS:          NON-INVERTING INPUT
*                       |   INVERTING INPUT
*                       |   |   POSITIVE POWER SUPPLY
*                       |   |   |   NEGATIVE POWER SUPPLY
*                       |   |   |   |   OUTPUT
*                       |   |   |   |   |
 X2                    15  16   3   4  12   A2_121E
*
***** A3_121E SUB-CIRCUIT
* CONNECTIONS:          NON-INVERTING INPUT
*                       |   INVERTING INPUT
*                       |   |   POSITIVE POWER SUPPLY
*                       |   |   |   NEGATIVE POWER SUPPLY
*                       |   |   |   |   OUTPUT
*                       |   |   |   |   |
 X3                    14  13   3   4   5   A3_121E
*
CIN   13  14   4PF		
C4    14   8   .50000E-12	
CC1   17  11   11.00E-12
CC2   16  12   11.00E-12
CG1    9   0   11.500E-12	
CG2   10   0   10.000E-12			
*
R1    11  13   40.0000E3
R2    13   5   39.996E3
R3    12  14   40.0000E3
R4    14   8   40.0000E3
*
R1FB   9  11   25.0000E3
R2FB  10  12   25.0000E3
*
RCE   17   9   500E6		
*
I1     3  16  DC  10.00E-6
I2     3  17  DC  10.00E-6
I3    10   4  DC  10.00E-6
I4     9   4  DC  10.00E-6
I5     3  21  DC  30.00E-6
I6     3  22  DC  30.00E-6
*
Q1    16  21  10  QX
Q2    17  22   9  QX
*
D1    17  15      DX
D2    16  15      DX
D12   15  17	  DX
D22   15  16	  DX
*
J1     4  31  21  JX
J2     4  33  22  JX
G11  31 4 POLY(2) (21,1) (4,1) 28E-12 3E-12 4.2E-12
G21  33 4 POLY(2) (22,2) (4,2) 28E-12 3E-12 4.2E-12
V1     3  15  DC  1.000
*
******************************
*			     *
* Additions for the INA121E  *
* (Enhanced) macromodel	     *
*			     *
******************************
*************************
*			*
* Anti-inversion clamps *
*			*
*************************
* POS INPUT PROTECTION
RINP 1    30   10
J1P  31   32   30  jy 15x
J2P  32   32   30  jz 1x
D1P  31   3    dx
D2P  4    31   dx
* NEG INPUT PROTECTION
RINN 2    35   10
J1N  33   34   35  jy 15x
J2N  34   34   35  jz 1x
D1N  33   3    dx
D2N  4    33   dx
.MODEL DX D(IS=1.0E-24)
.MODEL QX NPN(IS=800.0E-18 BF=500)
.MODEL JX PJF(IS=1E-12 BETA=750.0E-6 VTO=-1)
.MODEL JY PJF(IS=800.0E-18 VTO=-1.2 BETA=10U LAMBDA=13M)
.MODEL JZ PJF(IS=800.0E-18 VTO=-1.2 BETA=1U LAMBDA=13M)
.ENDS
* A1_121E operational amplifier "macromodel" subcircuit
* created using Parts release 8.0 on 05/28/98 at 13:16
* Parts is a MicroSim product.
*
* connections:   non-inverting input
*                | inverting input
*                | | positive power supply
*                | | | negative power supply
*                | | | | output
*                | | | | |
.subckt A1_121E  1 2 3 4 5
*
  c1   11 12 2.8868E-12
  c2    6  7 10.000E-12
  css  10 99 1.0000E-30
  dc    5 53 dy
  de   54  5 dy
  dlp  90 91 dx
  dln  92 90 dx
  dp    4  3 dx
  egnd 99  0 poly(2) (3,0) (4,0) 0 .5 .5
  fb    7 99 poly(5) vb vc ve vlp vln 0 17.684E6 -1E3 1E3 18E6 -18E6
  ga    6  0 11 12 1.2566E-3
  gcm   0  6 10 99 12.566E-9
  iss   3 10 dc 12.000E-6
  hlim 90  0 vlim 1K
  j1   11  2 10 jx1
  j2   12  1 10 jx2
  r2    6  9 100.00E3
  rd1   4 11 795.77
  rd2   4 12 795.77
  ro1   8  5 1
  ro2   7 99 9
  rp    3  4 3E6
  rss  10 99 16.667E6
  vb    9  0 dc 0
  vc    3 53 dc 1.6621
  ve   54  4 dc 1.0621
  vlim  7  8 dc 0
  vlp  91  0 dc 5
  vln   0 92 dc 5
******************************
*			     *
* Additions for the INA121E  *
* (Enhanced) macromodel	     *
* A1_121E sub-circuit	     *
*			     *
******************************
* OUTPUT SUPPLY MIRROR
  FQ3   0 20 POLY(1) VLIM 0 1
  DQ1  20 21 DX
  DQ2  22 20 DX
  VQ1  21  0 0
  VQ2  22  0 0 
  FQ1   3  0 POLY(1) VQ1 70u 1
  FQ2   0  4 POLY(1) VQ2 70u -1
.model dx D(Is=800.00E-18)
.model dy D(Is=800.00E-18 Rs=1m Cjo=10p)
.model jx1 PJF(Is=1.5000E-12 Beta=.13159 Vto=-1)
.model jx2 PJF(Is=1.5000E-12 Beta=.13159 Vto=-1)
.ends
* A2_121E operational amplifier "macromodel" subcircuit
* created using Parts release 8.0 on 05/28/98 at 13:16
* Parts is a MicroSim product.
*
* connections:   non-inverting input
*                | inverting input
*                | | positive power supply
*                | | | negative power supply
*                | | | | output
*                | | | | |
.subckt A2_121E  1 2 3 4 5
*
  c1   11 12 2.8868E-12
  c2    6  7 10.000E-12
  css  10 99 1.0000E-30
  dc    5 53 dy
  de   54  5 dy
  dlp  90 91 dx
  dln  92 90 dx
  dp    4  3 dx
  egnd 99  0 poly(2) (3,0) (4,0) 0 .5 .5
  fb    7 99 poly(5) vb vc ve vlp vln 0 17.684E6 -1E3 1E3 18E6 -18E6
  ga    6  0 11 12 1.2566E-3
  gcm   0  6 10 99 12.566E-9
  iss   3 10 dc 12.000E-6
  hlim 90  0 vlim 1K
  j1   11  2 10 jx1
  j2   12  1 10 jx2
  r2    6  9 100.00E3
  rd1   4 11 795.77
  rd2   4 12 795.77
  ro1   8  5 1
  ro2   7 99 9
  rp    3  4 3E6
  rss  10 99 16.667E6
  vb    9  0 dc 0
  vc    3 53 dc 1.6621
  ve   54  4 dc 1.0621
  vlim  7  8 dc 0
  vlp  91  0 dc 5
  vln   0 92 dc 5
******************************
*			     *
* Additions for the INA121E  *
* (Enhanced) macromodel	     *
* A2_121E sub-circuit	     *
*			     *