**
*
* OPA1013
*****************************************************************************
* (C) Copyright 2011 Texas Instruments Incorporated. All rights reserved.                                            
*****************************************************************************
** This model is designed as an aid for customers of Texas Instruments.
** TI and its licensors and suppliers make no warranties, either expressed
** or implied, with respect to this model, including the warranties of 
** merchantability or fitness for a particular purpose.  The model is
** provided solely on an "as is" basis.  The entire risk as to its quality
** and performance is with the customer.
*****************************************************************************
*
* This model is subject to change without notice. Texas Instruments
* Incorporated is not responsible for updating this model.
*
*****************************************************************************
*
** Released by: Analog eLab Design Center, Texas Instruments Inc.
* Part: OPA1013
* Date: 20MAY2011
* Model Type: ALL IN ONE
* Simulator: TINA
* Simulator Version: 9.1.30.94 SF-TI
* EVM Order Number: N/A 
* EVM Users Guide: N/A
* Datasheet: SBOS005
*
* Model Version: 1.0
*
*****************************************************************************
*
* Updates:
*
* Version 1.0 : 
* Release to Web
*
*****************************************************************************
* CONNECTIONS:		  NON-INVERTING INPUT
*	                  | INVERTING INPUT
*       	          | | POSITIVE POWER SUPPLY
*               	  | | | NEGATIVE POWER SUPPLY
*	        	  | | | | OUTPUT
*       	          | | | | |
* PIN CONFIG FOR OPA1013: 1 2 3 4 5
*****************************************************************************
.SUBCKT OPA1013 1 2 3 4 5
C1   11 12 6.062E-12
C2    6  7 21.00E-12
DC    5 53 DX
DE   54  5 DX
DLP  90 91 DX
DLN  92 90 DX
DP    4  3 DX
EGND 99  0 POLY(2) (3,0) (4,0) 0 .5 .5
FB    7 99 POLY(5) VB VC VE VLP VLN 0 1.624E9 -2E9 2E9 2E9 -2E9
GA    6  0 11 12 92.36E-6
GCM   0  6 10 99 130.5E-12
IEE   3 10 DC 8.418E-6
HLIM 90  0 VLIM 1K
Q1   11  2 13 QX
Q2   12  1 14 QX
R2    6  9 100.0E3
RC1   4 11 10.83E3
RC2   4 12 10.83E3
RE1  13 10 4.659E3
RE2  14 10 4.659E3
REE  10 99 23.76E6
RO1   8  5 120
RO2   7 99 30
*  RP    3  4 87.82E3
VB    9  0 DC 0
VC    3 53 DC 1
VE   54  4 DC 1
VLIM  7  8 DC 0
VLP  91  0 DC 30
VLN   0 92 DC 30

* OUTPUT SUPPLY MIRROR

FQ3   0 20 POLY(1) VLIM 0  1
DQ1  20 21 DX
DQ2  22 20 DX
VQ1  21  0 0
VQ2  22  0 0
FQ1   3  0 POLY(1) VQ1  0.2814E-3  1
FQ2   0  4 POLY(1) VQ2  0.2814E-3 -1

* QUIESCIENT CURRENT

RQ    3  4  5.0E5

* DIFF INPUT CAPACITANCE

CDIF  1  2  1.0E-12

* COMMON MODE INPUT CAPACITANCE

C1CM  1  99 1.5E-12
C2CM  2  99 1.5E-12

***************************
.MODEL DX D(IS=800.0E-18)
.MODEL QX PNP(IS=800.0E-18 BF=466.7)
.ENDS OPA1013
*$
* OPA111
*****************************************************************************
* (C) Copyright 2011 Texas Instruments Incorporated. All rights reserved.                                            
*****************************************************************************
** This model is designed as an aid for customers of Texas Instruments.
** TI and its licensors and suppliers make no warranties, either expressed
** or implied, with respect to this model, including the warranties of 
** merchantability or fitness for a particular purpose.  The model is
** provided solely on an "as is" basis.  The entire risk as to its quality
** and performance is with the customer.
*****************************************************************************
*
* This model is subject to change without notice. Texas Instruments
* Incorporated is not responsible for updating this model.
*
*****************************************************************************
*
** Released by: Analog eLab Design Center, Texas Instruments Inc.
* Part: OPA111
* Date: 04MAY2011
* Model Type: ALL IN ONE
* Simulator: TINA
* Simulator Version: 9.0.10.194 SF
* EVM Order Number: N/A 
* EVM Users Guide: N/A
* Datasheet: SBOS138
*
* Model Version: 1.0
*
*****************************************************************************
*
* Updates:
*
* Version 1.0 : 
* Release to Web
*
*****************************************************************************
* CONNECTIONS:		 NON-INVERTING INPUT
*	                 | INVERTING INPUT
*       	         | | POSITIVE POWER SUPPLY
*               	 | | | NEGATIVE POWER SUPPLY
*	        	 | | | | OUTPUT
*       	         | | | | |
* PIN CONFIG FOR OPA111: 1 2 3 4 5
*****************************************************************************
.SUBCKT OPA111  1 2 3 4 5
C1   11 12 72.79E-12
C2    6  7 400.0E-12
DC    5 53 DX
DE   54  5 DX
DLP  90 91 DX
DLN  92 90 DX
DP    4  3 DX
EGND 99  0 POLY(2) (3,0) (4,0) 0 .5 .5
FB    7 99 POLY(5) VB VC VE VLP VLN 0 4.717E6 -5E6 5E6 5E6 -5E6
GA    6  0 11 12 5.027E-3
GCM   0  6 10 99 15.90E-9
ISS   3 10 DC 800.0E-6
HLIM 90  0 VLIM 1K
J1   11  2 10 JX
J2   12  64 10 JX
G11 2 4 POLY(4) (10,2) (11,2) (4,2) (66,0) 0 1E-12 1E-12 1E-12 400E-9
G21 1 4 POLY(4) (10,1) (12,1) (4,1) (68,0) 0 1E-12 1E-12 1E-12 400E-9
R2    6  9 100.0E3
RD1   4 11 198.9
RD2   4 12 198.9
RO1   8  5 25
RO2   7 99 75
*  RP    3  4 12.00E3
RSS  10 99 250.0E3
VB    9  0 DC 0
VC    3 53 DC 3
VE   54  4 DC 3
VLIM  7  8 DC 0
VLP  91  0 DC 40
VLN   0 92 DC 40

* OUTPUT SUPPLY MIRROR
FQ3   0 20 POLY(1) VLIM 0  1
DQ1  20 21 DX
DQ2  22 20 DX
VQ1  21  0 0
VQ2  22  0 0
FQ1   3  0 POLY(1) VQ1  1.30E-3  1
FQ2   0  4 POLY(1) VQ2  1.30E-3 -1

* QUIESCIENT CURRENT
RQ    3  4  7.5E4

* DIFF INPUT CAPACITANCE
CDIF  64  2  1.0E-12

* COMMON MODE INPUT CAPACITANCE
C1CM  64  99 1.5E-12
C2CM  2  99 1.5E-12

* INPUT VOLTAGE NOISE 
VN1 61 4  0.6
VN2 4  62 0.6
DN1 61 63 DY
DN2 63 62 DY
EN 64 1  63 4 1

* INPUT CURRENT NOISE
RN1 0 65 60.3865
RN2 65 66 60.3865
RN3 66 0 120.773
RN4 0 67 60.3865
RN5 67 68 60.3865
RN6 68 0 120.773

.MODEL DY D(IS=3.8E-16 AF=1 KF=1.175E-16)
.MODEL DX D(IS=800.0E-18)
.MODEL JX PJF(IS=400.0E-15 BETA=15.79E-3 VTO=-1)

.ENDS OPA111

* OPA121
*****************************************************************************
* (C) Copyright 2011 Texas Instruments Incorporated. All rights reserved.                                            
*****************************************************************************
** This model is designed as an aid for customers of Texas Instruments.
** TI and its licensors and suppliers make no warranties, either expressed
** or implied, with respect to this model, including the warranties of 
** merchantability or fitness for a particular purpose.  The model is
** provided solely on an "as is" basis.  The entire risk as to its quality
** and performance is with the customer.
*****************************************************************************
*
* This model is subject to change without notice. Texas Instruments
* Incorporated is not responsible for updating this model.
*
*****************************************************************************
*
** Released by: Analog eLab Design Center, Texas Instruments Inc.
* Part: OPA121
* Date: 20MAY2011
* Model Type: ALL IN ONE
* Simulator: TINA
* Simulator Version: 9.1.30.94 SF-TI
* EVM Order Number: N/A 
* EVM Users Guide: N/A
* Datasheet: SBOS139
*
* Model Version: 1.0
*
*****************************************************************************
*
* Updates:
*
* Version 1.0 : 
* Release to Web
*
*****************************************************************************
* CONNECTIONS:		 NON-INVERTING INPUT
*	                 | INVERTING INPUT
*       	         | | POSITIVE POWER SUPPLY
*               	 | | | NEGATIVE POWER SUPPLY
*	        	 | | | | OUTPUT
*       	         | | | | |
* PIN CONFIG FOR OPA121: 1 2 3 4 5
*****************************************************************************

.SUBCKT OPA121  1 2 3 4 5
C1   11 12 72.79E-12
C2    6  7 400.0E-12
DC    5 53 DX
DE   54  5 DX
DLP  90 91 DX
DLN  92 90 DX
DP    4  3 DX
EGND 99  0 POLY(2) (3,0) (4,0) 0 .5 .5
FB    7 99 POLY(5) VB VC VE VLP VLN 0 2.653E6 -3E6 3E6 3E6 -3E6
GA    6  0 11 12 5.027E-3
GCM   0  6 10 99 31.72E-9
ISS   3 10 DC 800.0E-6
HLIM 90  0 VLIM 1K
J1   11  2 10 JX
J2   12  64 10 JX
G11 2 4 POLY(4) (10,2) (11,2) (4,2) (66,0) 0 1E-12 1E-12 1E-12 800E-9
G21 1 4 POLY(4) (10,1) (12,1) (4,1) (68,0) 0 1E-12 1E-12 1E-12 800E-9
R2    6  9 100.0E3
RD1   4 11 198.9
RD2   4 12 198.9
RO1   8  5 25
RO2   7 99 75

*  RP    3  4 12.00E3

RSS  10 99 250.0E3
VB    9  0 DC 0
VC    3 53 DC 3
VE   54  4 DC 3
VLIM  7  8 DC 0
VLP  91  0 DC 40
VLN   0 92 DC 40

* OUTPUT SUPPLY MIRROR
FQ3   0 20 POLY(1) VLIM 0  1
DQ1  20 21 DX
DQ2  22 20 DX
VQ1  21  0 0
VQ2  22  0 0
FQ1   3  0 POLY(1) VQ1  1.30E-3  1
FQ2   0  4 POLY(1) VQ2  1.30E-3 -1

* QUIESCIENT CURRENT
RQ    3  4  7.5E4

* DIFF INPUT CAPACITANCE
CDIF  1  2  1.0E-12

* COMMON MODE INPUT CAPACITANCE
C1CM  1  99 1.5E-12
C2CM  2  99 1.5E-12

* INPUT VOLTAGE NOISE 
VN1 61 4  0.6
VN2 4  62 0.6
DN1 61 63 DY
DN2 63 62 DY
EN 64 1  63 4 1

* INPUT CURRENT NOISE
RN1 0 65 60.3865
RN2 65 66 60.3865
RN3 66 0 120.773
RN4 0 67 60.3865
RN5 67 68 60.3865
RN6 68 0 120.773

******************

.MODEL DY D(IS=3.8E-16 AF=1 KF=2.089E-16)
.MODEL DX D(IS=800.0E-18)
.MODEL JX PJF(IS=500.0E-15 BETA=15.79E-3 VTO=-1)

.ENDS OPA121 

* OPA124
*****************************************************************************
* (C) Copyright 2011 Texas Instruments Incorporated. All rights reserved.                                            
*****************************************************************************
** This model is designed as an aid for customers of Texas Instruments.
** TI and its licensors and suppliers make no warranties, either expressed
** or implied, with respect to this model, including the warranties of 
** merchantability or fitness for a particular purpose.  The model is
** provided solely on an "as is" basis.  The entire risk as to its quality
** and performance is with the customer.
*****************************************************************************
*
* This model is subject to change without notice. Texas Instruments
* Incorporated is not responsible for updating this model.
*
*****************************************************************************
*
** Released by: Analog eLab Design Center, Texas Instruments Inc.
* Part: OPA124
* Date: 20MAY2011
* Model Type: ALL IN ONE
* Simulator: TINA
* Simulator Version: 9.1.30.94 SF-TI
* EVM Order Number: N/A 
* EVM Users Guide: N/A
* Datasheet: SBOS028
*
* Model Version: 1.0
*
*****************************************************************************
*
* Updates:
*
* Version 1.0 : 
* Release to Web
*
*****************************************************************************
* CONNECTIONS:		 NON-INVERTING INPUT
*	                 | INVERTING INPUT
*       	         | | POSITIVE POWER SUPPLY
*               	 | | | NEGATIVE POWER SUPPLY
*	        	 | | | | OUTPUT
*       	         | | | | |
* PIN CONFIG FOR OPA124: 1 2 3 4 5
*****************************************************************************
.SUBCKT OPA124  1 2 3 4 5
C1   11 12 72.79E-12
C2    6  7 400.0E-12
DC    5 53 DX
DE   54  5 DX
DLP  90 91 DX
DLN  92 90 DX
DP    4  3 DX
EGND 99  0 POLY(2) (3,0) (4,0) 0 .5 .5
FB    7 99 POLY(5) VB VC VE VLP VLN 0 4.717E6 -5E6 5E6 5E6 -5E6
GA    6  0 11 12 5.027E-3
GCM   0  6 10 99 15.90E-9
ISS   3 10 DC 800.0E-6
HLIM 90  0 VLIM 1K
J1   11  2 10 JX
J2   12  64 10 JX
G11 2 4 POLY(4) (10,2) (11,2) (4,2) (66,0) 0 1E-12 1E-12 1E-12 400E-9
G21 1 4 POLY(4) (10,1) (12,1) (4,1) (68,0) 0 1E-12 1E-12 1E-12 400E-9
R2    6  9 100E3
RD1   4 11 198.9
RD2   4 12 198.9
RO1   8  5 25
RO2   7 99 75
*  RP    3  4 12.00E3
RSS  10 99 250.0E3
VB    9  0 DC 0
VC    3 53 DC 3
VE   54  4 DC 3
VLIM  7  8 DC 0
VLP  91  0 DC 40
VLN   0 92 DC 40

* OUTPUT SUPPLY MIRROR
FQ3   0 20 POLY(1) VLIM 0  1
DQ1  20 21 DX
DQ2  22 20 DX
VQ1  21  0 0
VQ2  22  0 0
FQ1   3  0 POLY(1) VQ1  1.30E-3  1
FQ2   0  4 POLY(1) VQ2  1.30E-3 -1

* QUIESCIENT CURRENT
RQ    3  4  7.5E4

* DIFF INPUT CAPACITANCE
CDIF  64  2  1.0E-12

* COMMON MODE INPUT CAPACITANCE
C1CM  64  99 1.5E-12
C2CM  2  99 1.5E-12

* INPUT VOLTAGE NOISE 
VN1 61 4  0.6
VN2 4  62 0.6
DN1 61 63 DY
DN2 63 62 DY
EN 64 1  63 4 1

* INPUT CURRENT NOISE
RN1 0 65 60.3865
RN2 65 66 60.3865
RN3 66 0 120.773
RN4 0 67 60.3865
RN5 67 68 60.3865
RN6 68 0 120.773

******************

.MODEL DY D(IS=3.8E-16 AF=1 KF=1.175E-16)
.MODEL DX D(IS=800.0E-18)
.MODEL JX PJF(IS=400.0E-15 BETA=15.79E-3 VTO=-1)

.ENDS OPA124
 
* OPA128
*$
*****************************************************************************
* (C) Copyright 2011 Texas Instruments Incorporated. All rights reserved.                                            
*****************************************************************************
** This model is designed as an aid for customers of Texas Instruments.
** TI and its licensors and suppliers make no warranties, either expressed
** or implied, with respect to this model, including the warranties of 
** merchantability or fitness for a particular purpose.  The model is
** provided solely on an "as is" basis.  The entire risk as to its quality
** and performance is with the customer.
*****************************************************************************
*
* This model is subject to change without notice. Texas Instruments
* Incorporated is not responsible for updating this model.
*
*****************************************************************************
*
** Released by: Analog eLab Design Center, Texas Instruments Inc.
* Part: OPA128
* Date: 20MAY2011
* Model Type: ALL IN ONE
* Simulator: TINA
* Simulator Version: 9.1.30.94 SF-TI
* EVM Order Number: N/A 
* EVM Users Guide: N/A
* Datasheet: SBOS148
*
* Model Version: 1.0
*
*****************************************************************************
*
* Updates:
*
* Version 1.0 : 
* Release to Web
*
*****************************************************************************
* CONNECTIONS:		 NON-INVERTING INPUT
*	                 | INVERTING INPUT
*       	         | | POSITIVE POWER SUPPLY
*               	 | | | NEGATIVE POWER SUPPLY
*	        	 | | | | OUTPUT
*       	         | | | | |
* PIN CONFIG FOR OPA128 :1 2 3 4 5
*****************************************************************************
.SUBCKT OPA128  1 2 3 4 5
C1   11 12 2.204E-12
C2    6  7 25.00E-12
DC    5 53 DX
DE   54  5 DX
DLP  90 91 DX
DLN  92 90 DX
DP    4  3 DX
EGND 99  0 POLY(2) (3,0) (4,0) 0 .5 .5
FB    7 99 POLY(5) VB VC VE VLP VLN 0 106.6E6 -10E6 10E6 10E6 -10E6
GA    6  0 11 12 314.2E-6
GCM   0  6 10 99 395.5E-12
ISS   3 10 DC 80.00E-6
HLIM 90  0 VLIM 1K
J1   11  2 10 JX
J2   12  64 10 JX
G11 2 4 POLY(4) (10,2) (11,2) (4,2) (66,0) 0 1E-12 1E-12 1E-12 120E-9
G21 1 4 POLY(4) (10,1) (12,1) (4,1) (68,0) 0 1E-12 1E-12 1E-12 120E-9
R2    6  9 100.0E3
RD1   4 11 3.183E3
RD2   4 12 3.183E3
RO1   8  5 25
RO2   7 99 75
*  RP    3  4 33.33E3
RSS  10 99 2.500E6
VB    9  0 DC 0
VC    3 53 DC 2
VE   54  4 DC 2
VLIM  7  8 DC 0
VLP  91  0 DC 29
VLN   0 92 DC 29

* OUTPUT SUPPLY MIRROR
FQ3   0 20 POLY(1) VLIM 0  1
DQ1  20 21 DX
DQ2  22 20 DX
VQ1  21  0 0
VQ2  22  0 0
FQ1   3  0 POLY(1) VQ1  0.700E-3  1
FQ2   0  4 POLY(1) VQ2  0.700E-3 -1

* QUIESCIENT CURRENT
RQ    3  4  2.5E5

* DIFF INPUT CAPACITANCE
CDIF  1  2  1.0E-12

* COMMON MODE INPUT CAPACITANCE
C1CM  1  99 1.0E-12
C2CM  2  99 1.0E-12

* INPUT VOLTAGE NOISE
VN1 61 0  0.6
VN2 0  62 0.6
DN1 61 63 DY
DN2 63 62 DY
EN 64 1  63 0 1

* INPUT CURRENT NOISE
RN1 0 65 60.3865
RN2 65 66 60.3865
RN3 66 0 120.773
RN4 0 67 60.3865
RN5 67 68 60.3865
RN6 68 0 120.773

****************************

.MODEL DY D(IS=1.9E-16 AF=1 KF=5.643E-16)
.MODEL DX D(IS=800.0E-18)
.MODEL JX PJF(IS=20.00E-15 BETA=616.8E-6 VTO=-1)

.ENDS OPA128
*$ 
* OPA129
*$
*****************************************************************************
* (C) Copyright 2011 Texas Instruments Incorporated. All rights reserved.                                            
*****************************************************************************
** This model is designed as an aid for customers of Texas Instruments.
** TI and its licensors and suppliers make no warranties, either expressed
** or implied, with respect to this model, including the warranties of 
** merchantability or fitness for a particular purpose.  The model is
** provided solely on an "as is" basis.  The entire risk as to its quality
** and performance is with the customer.
*****************************************************************************
*
* This model is subject to change without notice. Texas Instruments
* Incorporated is not responsible for updating this model.
*
*****************************************************************************
*
** Released by: Analog eLab Design Center, Texas Instruments Inc.
* Part: OPA129
* Date: 20MAY2011
* Model Type: ALL IN ONE
* Simulator: TINA
* Simulator Version: 9.1.30.94 SF-TI
* EVM Order Number: N/A 
* EVM Users Guide: N/A
* Datasheet: SBOS026A – JANUARY 1994 – REVISED APRIL 2007
*
* Model Version: 1.0
*
*****************************************************************************
*
* Updates:
*
* Version 1.0 : 
* Release to Web
*
*****************************************************************************
* CONNECTIONS:		 NON-INVERTING INPUT
*	                 | INVERTING INPUT
*       	         | | POSITIVE POWER SUPPLY
*               	 | | | NEGATIVE POWER SUPPLY
*	        	 | | | | OUTPUT
*       	         | | | | |
* PIN CONFIG FOR OPA129 :1 2 3 4 5
*****************************************************************************
.subckt OPA129  1 2 3 4 5
  c1   11 12 4.000E-12
  c2    6  7 2.204E-12
  dc    5 53 dx
  de   54  5 dx
  dlp  90 91 dx
  dln  92 90 dx
  dp    4  3 dx
  egnd 99  0 poly(2) (3,0) (4,0) 0 .5 .5
  fb    7 99 poly(5) vb vc ve vlp vln 0 192.5E6 -20E6 20E6 20E6 -20E6
  ga    6  0 11 12 314.2E-6
  gcm   0  6 10 99 395.5E-12
  iss   3 10 dc 80.00E-6
  hlim 90  0 vlim 1K
  j1   11  2 10 jx
  j2   12  1 10 jx
  g11   2  4 poly(4) (10,2) (11,2) (4,2) (66,0) 0 1E-12 1E-12 1E-12 100E-9
  g21   1  4 poly(4) (10,1) (12,1) (4,1) (68,0) 0 1E-12 1E-12 1E-12 100E-9
  r2    6  9 100.0E3
  rd1   4 11 3.183E3
  rd2   4 12 3.183E3
  ro1   8  5 25
  ro2   7 99 75
  rp    3  4 25.00E3
  rss  10 99 2.500E6
  vb    9  0 dc 0
  vc    3 53 dc 2
  ve   54  4 dc 2
  vlim  7  8 dc 0
  vlp  91  0 dc 22.00
  vln   0 92 dc 22.00

* Output Supply Mirror
fq3     0  20  poly(1)  vlim 0 1
dq1    20  21  dx
dq2    22  20  dx
vq1    21   0  0
vq2    22   0  0
fq1     3   0  poly(1) vq1  0.700E-3   1
fq2     0   4  poly(1) vq2  0.700E-3  -1

* Diff Input Capacitance
cdif    1   2  1.0E-12

* Common Mode Input Capacitance
c1cm    1  99  1.0E-12
c2cm    2  99  1.0E-12

* Input Voltage Noise
vn1    61   0  0.6
vn2     0  62  0.6
dn1    61  63  dy
dn2    63  62  dy
en     64   1  63  0  1

* Input Current Noise
rn1     0  65  60.3865
rn2    65  66  60.3865
rn3    66   0  120.773
rn4     0  67  60.3865
rn5    67  68  60.3865
rn6    68   0  120.773

**************************

.model dy D(IS=1.9E-16 AF=1 KF=5.643E-16)   
.model dx D(Is=800.0E-18)
.model jx PJF(Is=20.00E-15 Beta=616.8E-6 Vto=-1)

.ends OPA129
*$
* OPA130
*$
*****************************************************************************
* (C) Copyright 2011 Texas Instruments Incorporated. All rights reserved.                                            
*****************************************************************************
** This model is designed as an aid for customers of Texas Instruments.
** TI and its licensors and suppliers make no warranties, either expressed
** or implied, with respect to this model, including the warranties of 
** merchantability or fitness for a particular purpose.  The model is
** provided solely on an "as is" basis.  The entire risk as to its quality
** and performance is with the customer.
*****************************************************************************
*
* This model is subject to change without notice. Texas Instruments
* Incorporated is not responsible for updating this model.
*
*****************************************************************************
*
** Released by: Analog eLab Design Center, Texas Instruments Inc.
* Part: OPA130
* Date: 20MAY2011
* Model Type: ALL IN ONE
* Simulator: TINA
* Simulator Version: 9.1.30.94 SF-TI
* EVM Order Number: N/A 
* EVM Users Guide: N/A
* Datasheet: SBOS053A – MAY 1998 – REVISED MARCH 2006
*
* Model Version: 1.0
*
*****************************************************************************
*
* Updates:
*
* Version 1.0 : 
* Release to Web
*
*****************************************************************************
* CONNECTIONS:		 NON-INVERTING INPUT
*	                 | INVERTING INPUT
*       	         | | POSITIVE POWER SUPPLY
*               	 | | | NEGATIVE POWER SUPPLY
*	        	 | | | | OUTPUT
*       	         | | | | |
* PIN CONFIG FOR OPA130: 1 2 3 4 5
*
* This model is also applicable to OPA2130 and OPA4130
*****************************************************************************
.SUBCKT OPA130   1 2 3 4 5
C1   11 12 4.330E-12
C2    6  7 15.00E-12
CSS  10 99 1.000E-30
DC    5 53 DX
DE   54  5 DX
DLP  90 91 DX
DLN  92 90 DX
DP    4  3 DX
EGND 99  0 POLY(2) (3,0) (4,0) 0 .5 .5
FB    7 99 POLY(5) VB VC VE VLP VLN 0 2.386E9 -2E9 2E9 2E9 -2E9
GA    6  0 11 12 94.25E-6
GCM   0  6 10 99 530.1E-12
ISS   3 10 DC 30.00E-6
HLIM 90  0 VLIM 1E3
J1   11  2 10 JX
J2   12  1 10 JX
R2    6  9 100.0E3
RD1   4 11 10.61E3
RD2   4 12 10.61E3
RO1   8  5 50
RO2   7 99 25
RP    3  4 56.25E3
RSS  10 99 6.667E6
VB    9  0 DC 0
VC    3 53 DC 1.500
VE   54  4 DC 1
VLIM  7  8 DC 0
VLP  91  0 DC 18
VLN   0 92 DC 18
.MODEL DX D(IS=800.0E-18)
.MODEL JX PJF(IS=2.500E-12 BETA=296.1E-6 VTO=-1)
.ENDS

*$
* OPA131
*$
*****************************************************************************
* (C) Copyright 2011 Texas Instruments Incorporated. All rights reserved.                                            
*****************************************************************************
** This model is designed as an aid for customers of Texas Instruments.
** TI and its licensors and suppliers make no warranties, either expressed
** or implied, with respect to this model, including the warranties of 
** merchantability or fitness for a particular purpose.  The model is
** provided solely on an "as is" basis.  The entire risk as to its quality
** and performance is with the customer.
*****************************************************************************
*
* This model is subject to change without notice. Texas Instruments
* Incorporated is not responsible for updating this model.
*
*****************************************************************************
*
** Released by: Analog eLab Design Center, Texas Instruments Inc.
* Part: OPA131
* Date: 20MAY2011
* Model Type: ALL IN ONE
* Simulator: TINA
* Simulator Version: 9.1.30.94 SF-TI
* EVM Order Number: N/A 
* EVM Users Guide: N/A
* Datasheet: SBOS040A – NOVEMBER 1994 – REVISED DECEMBER 2002
*
* Model Version: 1.0
*
*****************************************************************************
*
* Updates:
*
* Version 1.0 : 
* Release to Web
*
*****************************************************************************
* CONNECTIONS:		 NON-INVERTING INPUT
*	                 | INVERTING INPUT
*       	         | | POSITIVE POWER SUPPLY
*               	 | | | NEGATIVE POWER SUPPLY
*	        	 | | | | OUTPUT
*       	         | | | | |
* PIN CONFIG FOR OPA131 :1 2 3 4 5
*
* This model is also applicable to OPA2131 and OPA4131
*****************************************************************************
.SUBCKT OPA131  1 2 3 4 5  
c1   11 12 4.197E-12
c2    6  7 18.00E-12
css  10 99 7.200E-12
dc    5 53 dx
de   54  5 dx
dlp  90 91 dx
dln  92 90 dx
dp    4  3 dx
egnd 99  0 poly(2) (3,0) (4,0) 0 .5 .5
fb    7 99 poly(5) vb vc ve vlp vln 0 127.3E6 -130E6 130E6 130E6 -130E6
ga    6  0 11 12 452.4E-6
gcm   0  6 10 99 45.24E-9
iss   3 10 dc 252.0E-6
hlim 90  0 vlim 1K
j1   11  2  10 jx
j2   12  64 10 jx
g11   2  4 Poly(4)  (10,2) (11,2) (4,2) (66,0) 0 1e-12 1e-12 1e-12 3e-6
g12   1  4 Poly(4)  (10,1) (12,1) (4,1) (68,0) 0 1e-12 1e-12 1e-12 3e-6
r2    6  9 100.0E3
rd1   4 11 2.210E3
rd2   4 12 2.210E3
ro1   8  5 50
ro2   7 99 25

* rp    3  4 20.00E3

rss  10 99 793.7E3
vb    9  0 dc 0
vc    3 53 dc 2.500
ve   54  4 dc 2.500
vlim  7  8 dc 0
vlp  91  0 dc 20
vln   0 92 dc 20

* Output Supply Mirror
FQ3    0    20    Poly(1) Vlim 0   1
DQ1   20    21    DX
DQ2   22    20    DX
VQ1   21     0    0
VQ2   22     0    0
FQ1    3     0    Poly(1) VQ1   1.06E-3   1
FQ2    0     4    Poly(1) VQ2   1.06E-3  -1

* Quiescent Current
RQ     3     4    160E3 

* Diff Input Capacitance
CDIF   1     2    1E-12

* Common Mode Input Capacitance
C1CM   1    99    1.5E-12
C2CM   2    99    1.5E-12

* Input Voltage Noise
VN1   61     0  0.6
VN2    0    62  0.6
DN1   61    63  DY
DN2   63    62  DY
EN    64     1    63   0    1

* Input Current Noise
RN1    0    65  60.3865
RN2   65    66  60.3865
RN3   66     0  120.773
RN4    0    67  60.3865
RN5   67    68  60.3865
RN6   68     0  120.773

**************************
.model dy D(Is=1.9E-16 RS=2000 AF=1 KF=2.258E-17)
.model dx D(Is=800.0E-18)
.model jx PJF(Is=2.500E-12 Beta=812.1E-6 Vto=-1)

.ends OPA131

*$
* OPA132
*$
*****************************************************************************
* (C) Copyright 2011 Texas Instruments Incorporated. All rights reserved.                                            
*****************************************************************************
** This model is designed as an aid for customers of Texas Instruments.
** TI and its licensors and suppliers make no warranties, either expressed
** or implied, with respect to this model, including the warranties of 
** merchantability or fitness for a particular purpose.  The model is
** provided solely on an "as is" basis.  The entire risk as to its quality
** and performance is with the customer.
*****************************************************************************
*
* This model is subject to change without notice. Texas Instruments
* Incorporated is not responsible for updating this model.
*
*****************************************************************************
*
** Released by: Analog eLab Design Center, Texas Instruments Inc.
* Part: OPA132
* Date: 20MAY2011
* Model Type: ALL IN ONE
* Simulator: TINA
* Simulator Version: 9.1.30.94 SF-TI
* EVM Order Number: N/A 
* EVM Users Guide: N/A
* Datasheet: SBOS054A – JANUARY 1995 – REVISED JUNE 2004
*
* Model Version: 1.0
*
*****************************************************************************
*
* Updates:
*
* Version 1.0 : 
* Release to Web
*
*****************************************************************************
* CONNECTIONS:		 NON-INVERTING INPUT
*	                 | INVERTING INPUT
*       	         | | POSITIVE POWER SUPPLY
*               	 | | | NEGATIVE POWER SUPPLY
*	        	 | | | | OUTPUT
*       	         | | | | |
* PIN CONFIG FOR OPA132 :1 2 3 4 5
*
* This model is also applicable to OPA2132 and OPA4132
*****************************************************************************
.SUBCKT OPA132   1 2 3 4 5
C1   11 12 3.240E-12
C2    6  7 8.000E-12
CSS  10 99 1.000E-30
DC    5 53 DX
DE   54  5 DX
DLP  90 91 DX
DLN  92 90 DX
DP    4  3 DX
EGND 99  0 POLY(2) (3,0) (4,0) 0 .5 .5
FB    7 99 POLY(5) VB VC VE VLP VLN 0 248.0E6 -250E6 250E6 250E6 -250E6
GA    6  0 11 12 402.0E-6
GCM   0  6 10 99 4.020E-9
ISS   3 10 DC 160.0E-6
HLIM 90  0 VLIM 1E3
J1   11  2 10 JX
J2   12  1 10 JX
R2    6  9 100.0E3
RD1   4 11 2.490E3
RD2   4 12 2.490E3
RO1   8  5 20
RO2   7 99 20
RP    3  4 7.500E3
RSS  10 99 1.250E6
VB    9  0 DC 0
VC    3 53 DC 1.200
VE   54  4 DC .9
VLIM  7  8 DC 0
VLP  91  0 DC 40
VLN   0 92 DC 40
.MODEL DX D(IS=800.0E-18)
.MODEL JX PJF(IS=2.500E-15 BETA=1.010E-3 VTO=-1)
.ENDS OPA132

*$
* OPA134
*$
*****************************************************************************
* (C) Copyright 2011 Texas Instruments Incorporated. All rights reserved.                                            
*****************************************************************************
** This model is designed as an aid for customers of Texas Instruments.
** TI and its licensors and suppliers make no warranties, either expressed
** or implied, with respect to this model, including the warranties of 
** merchantability or fitness for a particular purpose.  The model is
** provided solely on an "as is" basis.  The entire risk as to its quality
** and performance is with the customer.
*****************************************************************************
*
* This model is subject to change without notice. Texas Instruments
* Incorporated is not responsible for updating this model.
*
*****************************************************************************
*
** Released by: Analog eLab Design Center, Texas Instruments Inc.
* Part: OPA134
* Date: 20MAY2011
* Model Type: ALL IN ONE
* Simulator: TINA
* Simulator Version: 9.1.30.94 SF-TI
* EVM Order Number: N/A 
* EVM Users Guide: N/A
* Datasheet: SBOS058
*
* Model Version: 1.0
*
*****************************************************************************
*
* Updates:
*
* Version 1.0 : 
* Release to Web
*
*****************************************************************************
* This model is also applicable to OPA2134 and OPA4134
* 
* CONNECTIONS:		 NON-INVERTING INPUT
*	                 | INVERTING INPUT
*       	         | | POSITIVE POWER SUPPLY
*               	 | | | NEGATIVE POWER SUPPLY
*	        	 | | | | OUTPUT
*       	         | | | | |
* PIN CONFIG FOR OPA134: 1 2 3 4 5
*****************************************************************************
.SUBCKT OPA134   1 2 3 4 5
C1   11 12 3.240E-12
C2    6  7 8.000E-12
CSS  10 99 1.000E-30
DC    5 53 DX
DE   54  5 DX
DLP  90 91 DX
DLN  92 90 DX
DP    4  3 DX