*
* ------------------------------------------------------------------------
*|(C) Copyright Texas Instruments Incorporated 2007. All rights reserved. |
*|                                                                        |
*|This Model is designed as an aid for customers of Texas Instruments.    |
*|No warranties, either expressed or implied, with respect to this Model  |
*|or its fitness for a particular purpose is claimed by Texas Instruments |
*|or the author.  The Model is licensed solely on an "as is" basis.  The  |
*|entire risk as to its quality and performance is with the customer.     |
* ------------------------------------------------------------------------
* DRV134 = THREE OP1 OPERATIONAL AMPLIFIERS + PRECISION RESISTOR NETWORK
* REV A CREATED BY KEVIN HUKINS ON 10/15/98 AT 12:00
* REV B CREATED BY NEIL ALBAUGH 16 FEB 1999. CHANGED NAME FROM DRV134M TO DRV134.
*
*
*
***** DRV134 SUB-CIRCUIT
* CONNECTIONS:
*				-VO
*				|  -SENSE
*				|  |  GND
*				|  |  |  VIN
*				|  |  |  |  -V
*				|  |  |  |  |  V+  
*				|  |  |  |  |  |  +SENSE
*				|  |  |  |  |  |  |  +VO
*				|  |  |  |  |  |  |  |
.SUBCKT DRV134		1  2  3  4  5  6  7  8
XA1      21  22  6   5   23  OP1
DC7B     5   7    SIMPLED 1
DC7A     7   6    SIMPLED 1
DC8A     8   6    SIMPLED 1
DC8B     5   8    SIMPLED 1
R1A      4   24   30K
R2A      24  28   32.5K
CN       24  28   4PF
XAA      31  24  6   5   28  OP1
R3B      4   25   30K
R4B      25  2    33K
R3A      23  26   30K
R4A      26  7    33.01K
R1B      23  27   30K
RNULL    32  21   15K
CP       27  29   4PF
R2B      27  29   32.509K
XAB      30  27  6   5   29  OP1
ROA      28  1    50.02
ROB      29  8    50.0
RCA      2   3    10K
RCB      3   7    10K
IQ       6   5    DC 4.2M
RQ       6   5    80K
VOSAB    30  25   DC 500U
VOSAA    31  26   DC 500U
VOSA1    3   32   DC 500U
R1       4   22   30K
DC1B     5   1    SIMPLED 1
DC1A     1   6    SIMPLED 1
DC2A     2   6    SIMPLED 1
DC2B     5   2    SIMPLED 1
R2       22  23   30K
DC3A     3   6    SIMPLED 1
DC3B     5   3    SIMPLED 1
DC4A     4   6    SIMPLED 1
DC4B     5   4    SIMPLED 1
.MODEL SIMPLED D RS=1
.ENDS
*
***** OP1 SUB-CIRCUIT
* CONNECTIONS:
*				NON-INVERTING INPUT
*				|  INVERTING INPUT
*				|  |  POSITIVE POWER SUPPLY
*				|  |  |  NEGATIVE POWER SUPPLY
*				|  |  |  |  OUTPUT
*				|  |  |  |  |
.SUBCKT OP1 			1  2  3  4  5  
DL1      20  13   SIMPLED 1
DL2      13  20   SIMPLED 1
VSNP     0   18   DC 0
VSNN     19  0    DC 0
DSP      18  17   SIMPLED 1
DSN      17  19   SIMPLED 1
F2       3   0    VSNP 1.0
F0       0   4    VSNN 1.0
RO2      20  5    10.0
VC       3   14   DC 2.8
VE       15  4    DC 2.8
VSN1     3   6    DC 0
VSN2     3   7    DC 0
Q1       6   1   8    SIMPLEQ 1
Q2       7   2   9    SIMPLEQ 1
IEE      10  4    DC 200UA
F1       0   13   VSN3 1.0
DC       13  14   SIMPLED 1
RG       13  0    3.3G
C2       0   13   22PF
RE2      9   10   3.3K
DE       15  13   SIMPLED 1
RE1      8   10   3.3K
FB       17  13   VLIM .99999
VLIM     16  20   DC 0
RO1      13  16   7.0
F3       0   11   POLY (2) VSN1 VSN2 0 1.0 -1.0
C1       0   11   18PF
R1       11  12   3.3K
VSN3     12  0    DC 0
DP       4   3    SIMPLED 1
*.ENDS
*
**** DEVICE MODELS
.MODEL SIMPLED D RS=1
.MODEL SIMPLEQ NPN RB=1 RC=1 RE=1 KF=.08F
*XD1      VON VON GD  VIN VN  VP  VOP VOP DRV134
.ENDS
*.ENDS MODEL DRV134
*
*
* ------------------------------------------------------------------------
*|(C) Copyright Texas Instruments Incorporated 2007. All rights reserved. |
*|                                                                        |
*|This Model is designed as an aid for customers of Texas Instruments.    |
*|No warranties, either expressed or implied, with respect to this Model  |
*|or its fitness for a particular purpose is claimed by Texas Instruments |
*|or the author.  The Model is licensed solely on an "as is" basis.  The  |
*|entire risk as to its quality and performance is with the customer.     |
* ------------------------------------------------------------------------
* DRV135 = THREE OP1 OPERATIONAL AMPLIFIERS + PRECISION RESISTOR NETWORK
* REV A CREATED BY KEVIN HUKINS ON 10/15/98 AT 12:00
* REV B CREATED BY NEIL ALBAUGH 16 FEB 1999. COPIED FILE FROM DRV134 TO DRV135.
*
*
*
***** DRV135 SUB-CIRCUIT
* CONNECTIONS:
*				-VO
*				|  -SENSE
*				|  |  GND
*				|  |  |  VIN
*				|  |  |  |  -V
*				|  |  |  |  |  V+  
*				|  |  |  |  |  |  +SENSE
*				|  |  |  |  |  |  |  +VO
*				|  |  |  |  |  |  |  |
.SUBCKT DRV135		1  2  3  4  5  6  7  8
XA1      21  22  6   5   23  OP2
DC7B     5   7    SIMPLED 1
DC7A     7   6    SIMPLED 1
DC8A     8   6    SIMPLED 1
DC8B     5   8    SIMPLED 1
R1A      4   24   30K
R2A      24  28   32.5K
CN       24  28   4PF
XAA      31  24  6   5   28  OP2
R3B      4   25   30K
R4B      25  2    33K
R3A      23  26   30K
R4A      26  7    33.01K
R1B      23  27   30K
RNULL    32  21   15K
CP       27  29   4PF
R2B      27  29   32.509K
XAB      30  27  6   5   29  OP2
ROA      28  1    50.02
ROB      29  8    50.0
RCA      2   3    10K
RCB      3   7    10K
IQ       6   5    DC 4.2M
RQ       6   5    80K
VOSAB    30  25   DC 500U
VOSAA    31  26   DC 500U
VOSA1    3   32   DC 500U
R1       4   22   30K
DC1B     5   1    SIMPLED 1
DC1A     1   6    SIMPLED 1
DC2A     2   6    SIMPLED 1
DC2B     5   2    SIMPLED 1
R2       22  23   30K
DC3A     3   6    SIMPLED 1
DC3B     5   3    SIMPLED 1
DC4A     4   6    SIMPLED 1
DC4B     5   4    SIMPLED 1
.MODEL SIMPLED D RS=1
.ENDS
*
***** OP2 SUB-CIRCUIT
* CONNECTIONS:
*				NON-INVERTING INPUT
*				|  INVERTING INPUT
*				|  |  POSITIVE POWER SUPPLY
*				|  |  |  NEGATIVE POWER SUPPLY
*				|  |  |  |  OUTPUT
*				|  |  |  |  |
.SUBCKT OP2 			1  2  3  4  5  
DL1      20  13   SIMPLED 1
DL2      13  20   SIMPLED 1
VSNP     0   18   DC 0
VSNN     19  0    DC 0
DSP      18  17   SIMPLED 1
DSN      17  19   SIMPLED 1
F2       3   0    VSNP 1.0
F0       0   4    VSNN 1.0
RO2      20  5    10.0
VC       3   14   DC 2.8
VE       15  4    DC 2.8
VSN1     3   6    DC 0
VSN2     3   7    DC 0
Q1       6   1   8    SIMPLEQ 1
Q2       7   2   9    SIMPLEQ 1
IEE      10  4    DC 200UA
F1       0   13   VSN3 1.0
DC       13  14   SIMPLED 1
RG       13  0    3.3G
C2       0   13   22PF
RE2      9   10   3.3K
DE       15  13   SIMPLED 1
RE1      8   10   3.3K
FB       17  13   VLIM .99999
VLIM     16  20   DC 0
RO1      13  16   7.0
F3       0   11   POLY (2) VSN1 VSN2 0 1.0 -1.0
C1       0   11   18PF
R1       11  12   3.3K
VSN3     12  0    DC 0
DP       4   3    SIMPLED 1
*.ENDS
*
**** DEVICE MODELS
.MODEL SIMPLED D RS=1
.MODEL SIMPLEQ NPN RB=1 RC=1 RE=1 KF=.08F
*XD1      VON VON GD  VIN VN  VP  VOP VOP DRV135
.ENDS
*.ENDS MODEL DRV135
*
*
* ------------------------------------------------------------------------
*|(C) Copyright Texas Instruments Incorporated 2007. All rights reserved. |
*|                                                                        |
*|This Model is designed as an aid for customers of Texas Instruments.    |
*|No warranties, either expressed or implied, with respect to this Model  |
*|or its fitness for a particular purpose is claimed by Texas Instruments |
*|or the author.  The Model is licensed solely on an "as is" basis.  The  |
*|entire risk as to its quality and performance is with the customer.     |
* ------------------------------------------------------------------------
* IVC102M (switched integrator) MULTIPLE POLE/ZERO MACROMODEL
*
* REV. A  Created 5-30-96 BCB
* REV.B  20 JUNE 97 NPA: MOVED LEGAL DISCLAIMER TO BEGINNING OF FILE
*
* 
* NOTES : 
*    1.  The transient time for the input to the switches (HOLD and 
*        RESET) should be programmed to 6V/usec.  
*        Complying with this requirment will give you greater
*        success in convergence during transient analysis and
*        a more accurate simulation of the effect of the 200nsec
*        switching speed of the actual switching transistors in 
*        the IVC102.  This is easily implemented with the PULSE
*        command in Spice.  If your input signal to the switches
*        is faster than recommended above, the R-C, low-pass filter
*        on the input of the switch will slow the signal down some-
*        what, however not enough to comply with the data sheet stated
*        switching speeds of 200nsec.
*    2.  To insure proper operation, always establish the initial 
*        bias point for the transient analysis with RESET and 
*        HOLD equal to the potential at COM
*
*
*                AGND
*                |  SWIN (SWITCH IN)
*                |  |  INM
*                |  |  |  C1
*                |  |  |  |  C2
*                |  |  |  |  |  C3
*                |  |  |  |  |  |  VM (NEGATIVE SUPPLY)
*                |  |  |  |  |  |  |  VOUT
*                |  |  |  |  |  |  |  |  S1 (HOLD)
*                |  |  |  |  |  |  |  |  |  S2 (RESET)
*                |  |  |  |  |  |  |  |  |  |  DGND
*                |  |  |  |  |  |  |  |  |  |  |  VP (POSITIVE SUPPLY)
*                |  |  |  |  |  |  |  |  |  |  |  |
.SUBCKT  IVC102M 1  2  3  4  5  6  9  10 11 12 13 14
X1  3 1 10 9 14 OPA
*Integration Capacitors
C1 10 4 CC 10E-12
C2 10 5 CC 30E-12
C3 10 6 CC 60E-12
* Switches
*
SH1 2 3 11 13 SWH
SH2  2 3 2 13 SWT
SR  3 10 12 13 SWR
.MODEL SWH VSWITCH(RON=1000G ROFF=1.7E3 VON=2 VOFF=0.8)
.MODEL SWR VSWITCH(RON=1000G ROFF=1.5E3 VON=2 VOFF=0.8)
.MODEL SWT VSWITCH(RON=1000G ROFF=10 VON=0.45 VOFF=0.55)
.MODEL CC CAP(VC1=25E-6 TC1=-25E-6)
.ENDS
*             INM
*             |  INP
*             |  |  OUT
*             |  |  |  VM
*             |  |  |  |  VP
*             |  |  |  |  |
.SUBCKT  OPA   2  3  6  4  7
* Amp input stage (2nd pole @ 35M Hz)
*
J11 15 2 14 JX
J12 16 13 14 JX
C12 15 16 18.2E-12
R13 15 7 796
R14 16 7 796
ISS 14 4 1.11E-3
VOS 13 3 0.5E-3
G1 2 30 POLY(3) (15,2) (14,2) (30,2) 0 1E-12 1E-12 1E-12
G2 13 30 POLY(3) (16,13) (14,13) (30,13) 0 1E-12 1E-12 1E-12
* Amp gain stage (130dB) and first pole (@ 4.20K HZ)
*
R27 7 21 2.45E9
R28 4 21 2.45E9
C22 7 21 100E-12
C23 4 21 100E-12
G21 7 21 POLY(1) 15 16 1.451E-3 1.256E-3
G22 21 4 POLY(1) 16 15 1.451E-3 1.256E-3
I22 7 13 2.2E-3
V21 7 22 1.885
V22 23 4 1.885
D21 21 22 DX
D22 23 21 DX
* Amp correction current and output stage
*
IPS 7 30 9E-3
RPS 7 30 100E3
R9 7 71 100E3
R10 4 71 100E3
D91 21 6 DX
D92 6 21 DX
D93 7 94 DX
D94 7 95 DX
D95 4 94 DY
D96 4 95 DY
G91 7 6 21 7 .020387
G92 4 6 21 4 .020387
G95 94 4 6 21 .020387
G96 95 4 21 6 .020387
R91 7 6 49.051
R92 4 6 49.051
* Models
.MODEL JX NJF(BETA=.788E-3 VTO=-2 IS=5E-14)
.MODEL DX D(IS=1E-15)
.MODEL DY D(IS=1E-15  BV=50)
*
.ENDS 
*.ENDS IVC102M
*
* ------------------------------------------------------------------------
*|(C) Copyright Texas Instruments Incorporated 2007. All rights reserved. |
*|                                                                        |
*|This Model is designed as an aid for customers of Texas Instruments.    |
*|No warranties, either expressed or implied, with respect to this Model  |
*|or its fitness for a particular purpose is claimed by Texas Instruments |
*|or the author.  The Model is licensed solely on an "as is" basis.  The  |
*|entire risk as to its quality and performance is with the customer.     |
* ------------------------------------------------------------------------
*  Bandwidth: 14kHz,  Iq = 0.12mA, Single-Supply: +2.7 - +36V
*  REV.A   12-13-94  EM
*  REV.B 7 June 97 NPA added text: Model optical input as an equivalent photodiode
*                                  current into SJ (pin 2).
*  REV.C  20 JUNE 97 NPA: MOVED LEGAL DISCLAIMER TO BEGINNING OF FILE
*
* Users should very carefully note the following factors regarding this
* model:
*
*      This macromodel, although similar to the commonly used
*      Boyle model, has limitations on many characteristics.
*
*      Use this macromodel to model both OPT101P (PDIP), and OPT101W (SIP).
*      The inverting input (summing junction)is available on the P package only.
*
*      Modeled behavior includes:
*           Offset Voltage (initially set to 7.5mV)
*           Input bias current (initially set to 200pA)
*           Current limit and load-dependant output swing
*           Quiescent Current, including the effect of Vpin3
*           Input Impedance
*           Open Loop Gain
*           Large-signal dynamic behavior
*           
*      Behavior that is NOT modeled includes:
*           Changes in parameters over temperature
*           Noise
*           Parameter variation for Monte Carlo analysis
*           Over-voltage effects 
*           Slew Rate
*
*       This macromodel may not accurately model all aforementioned behaviour
*       with other than the internal 1 megohm feedback resistor and 8 pF 
*       capacitor.
*
*-----------------------------------------------------------------------------
*
* Connections:   vs
*                |  inverting input
*                |  |  vpin3
*                |  |   |  feedback
*                |  |   |  |    vout
*                |  |   |  |     |  common
*                |  |   |  |     |    |
.subckt OPT101   vs in vpd feed vout com
*
  c1   11 12 1E-12
  c2    6  7 1E-12
  cee  10 99 9E-12
  cpar in feed 5.5e-12
  cf   in vout 9e-12
  cphoto in com 1200e-12 ; photodiode capacitance
  dc   vout 53 dx
  de   54  vout dx
  dlp  90 91 dx
  dln  92 90 dx
  dp    4 vs dx
  egnd 99  0 poly(2) (vs,0) (4,0) 0 .5 .5
  fb    7 99 poly(5) vb vc ve vlp vln 0 1.061E9 -1E9 1E9 1E9 -1E9
  ga    6  0 11 12 22.5E-6
  gcm   0  6 10 99 314.2E-12
  iee  vs 10 dc 10.00E-6
  hlim 90  0 vlim 1K
  q1   11  in 13 qx
  q2   12  1 14 qx
  jpd  ed vout vout jp ; JFET pulldown
  r2    6  9 100e3
  rc1   44 11 79.58E3
  rc2   44 12 79.58E3
  re1  13 10 74.40E3
  re2  14 10 74.40E3
  ree  10 99 20.00E6
  ro1   8 vout 3
  ro2   7 99 3
  rp   vs 4 2.8e6
  rf   in feed 1e6 ; internal 1meg
  vb    9  0 dc 0
  vc   vs 53 dc 1.815
  ve   54  4 dc 0
  vlim  7  8 dc 0
  vlp  91  0 dc 15
  vln   0 92 dc 15
  vls  4 44 dc 0.7
  vped 1 com dc 7.5e-3 ; offset voltage
  vbulk 4 0 dc 0
  vdrain ed vpd dc 0
  iq   vs 4 dc 100u
  fdrain vs 4 vdrain 1
.model dx D(Is=800.0E-18)
.model qx PNP(Is=800.0E-18 Bf=25.00E3)
.model jp PJF(VTO=-1.2 BETA=72U LAMBDA=7M)
.ENDS
*.ends OPT101
*
*
*
* OPT301 INTEGRATED PHOTODIODE AND AMPLIFIER MACROMODEL 
*
* CREATED USING PARTS 3/18/93 WM
*  REV.A
*  REV.B 7 June 97 NPA added text: Model optical input as an equivalent photodiode
*                                  current into SJ (pin 2).
*  REV.C  20 JUNE 97 NPA: MOVED LEGAL DISCLAIMER TO BEGINNING OF FILE
*
*  ------------------------------------------------------------*
* | NOTE: USE AN EXTERNAL CURRENT SOURCE BETWEEN PINS 2 AND 8  * 
* |       TO MODEL THE CURRENT GENERATED BY THE PHOTODIODE.    *
*  ------------------------------------------------------------*
*
* ------------------------------------------------------------------------
*|(C) Copyright Texas Instruments Incorporated 2007. All rights reserved. |
*|                                                                        |
*|This Model is designed as an aid for customers of Texas Instruments.    |
*|No warranties, either expressed or implied, with respect to this Model  |
*|or its fitness for a particular purpose is claimed by Texas Instruments |
*|or the author.  The Model is licensed solely on an "as is" basis.  The  |
*|entire risk as to its quality and performance is with the customer.     |
* ------------------------------------------------------------------------
* connections:   COM
*                | -IN
*                | | +V
*                | | | -V
*                | | | | OUT
*                | | | | | 1MEG
*                | | | | | |  
.subckt OPT301   8 2 1 3 5 4
*
X1               8 2 1 3 55  OPAMP
*  PHOTODIODE AND FEEDBACK COMPONENTS
RFB    2 4  1E6
ROUT  55 5  75
CFB   55 2  40E-12
RPHOTO 2 8  100E6
CPHOTO 2 8  4000E-12
DPHOTO 2 8  DIODE
.MODEL DIODE  D
.ENDS
*  OPAMP MODEL
.SUBCKT OPAMP  1 2 3 4 5
C1   11 12 10.49E-12
C2    6  7 45.00E-12
CSS  10 99 61.36E-12
DC    5 53 DX
DE   54  5 DX
DLP  90 91 DX
DLN  92 90 DX
DP    4  3 DX
EGND 99  0 POLY(2) (3,0) (4,0) 0 .5 .5
FB    7 99 POLY(5) VB VC VE VLP VLN 0 29.43E9 -30E9 30E9 30E9 -30E9
GA    6  0 11 12 107.4E-6
GCM   0  6 10 99 1.074E-9
ISS   3 10 DC 117.0E-6
HLIM 90  0 VLIM 1E3
J1   11  2 10 JX
J2   12  1 10 JX
R2    6  9 100.0E3
RD1   4 11 9.307E3
RD2   4 12 9.307E3
RO1   8  5 75
RO2   7 99 2
RP    3  4 75.00E3
RSS  10 99 1.709E6
VB    9  0 DC 0
VC    3 53 DC 1.
VE   54  4 DC .5
VLIM  7  8 DC 0
VLP  91  0 DC 15
VLN   0 92 DC 15
*.ENDS
.MODEL DX D(IS=800.0E-18)
.MODEL JX PJF(IS=500.0E-15 BETA=58.E-6 VTO=-1)
.ENDS
*.ENDS OPT301
*
*
* UAF42E OPERATIONAL AMPLIFIER "MACROMODEL" SUBCIRCUIT
* "E" IS ENHANCED MODEL
* SUBCIRCUIT AMP_UAFE CREATED USING PARTS RELEASE 4.03 ON 10/17/90 AT 14:54
*
* UAF42E = 4x AMP_UAFE + PRECISION RESISTORS AND CAPS
* 
* REV.B  3/21/92 BCB added input bias current error correction to AMP_UAFE
* REV.C  1/3/94  JA  Changed the entire macro model file to be
*                    a UAF42 instead of a single op amp contained in the UAF42
* REV.D  20 JUNE 97 NPA: MOVED LEGAL DISCLAIMER TO BEGINNING OF FILE
*
* ------------------------------------------------------------------------
*|(C) Copyright Texas Instruments Incorporated 2007. All rights reserved. |
*|                                                                        |
*|This Model is designed as an aid for customers of Texas Instruments.    |
*|No warranties, either expressed or implied, with respect to this Model  |
*|or its fitness for a particular purpose is claimed by Texas Instruments |
*|or the author.  The Model is licensed solely on an "as is" basis.  The  |
*|entire risk as to its quality and performance is with the customer.     |
* ------------------------------------------------------------------------
***** UAF42E SUB-CIRCUIT
* CONNECTIONS:   LOW-PASS OUTPUT
*                | V IN 3
*                | | V IN 2
*                | | | AUX AMP NON-INVERTING INPUT
*                | | | | AUX AMP INVERTING INPUT
*                | | | | | AUX AMP OUTPUT
*                | | | | | | BAND-PASS OUTPUT
*                | | | | | | | FREQUENCY ADJ1
*                | | | | | | | | NEGATIVE POWER SUPPLY
*                | | | | | | | | | POSITIVE POWER SUPPLY
*                | | | | | | | | | |  GROUND
*                | | | | | | | | | |  |  V IN 1
*                | | | | | | | | | |  |  |  HIGH-PASS OUTPUT
*                | | | | | | | | | |  |  |  |  FREQUENCY ADJ2
*                | | | | | | | | | |  |  |  |  |
.SUBCKT UAF42E   1 2 3 4 5 6 7 8 9 10 11 12 13 14
*
* CONNECTIONS:   NON-INVERTING INPUT
*                | INVERTING INPUT
*                | |  POSITIVE POWER SUPPLY
*                | |  | NEGATIVE POWER SUPPLY
*                | |  |  | OUTPUT
*                | |  |  | |
X1               3 12 10 9 13   AMP_UAFE
*
* CONNECTIONS:   NON-INVERTING INPUT
*                |  INVERTING INPUT
*                |  | POSITIVE POWER SUPPLY
*                |  | | NEGATIVE POWER SUPPLY
*                |  | |  | OUTPUT
*                |  | |  | |
X2               11 8 10 9 7   AMP_UAFE
*
* CONNECTIONS:   NON-INVERTING INPUT
*                |  INVERTING INPUT
*                |  |  POSITIVE POWER SUPPLY
*                |  |  | NEGATIVE POWER SUPPLY
*                |  |  |  | OUTPUT
*                |  |  |  | |
X3               11 14 10 9 1   AMP_UAFE
*
* CONNECTIONS:   NON-INVERTING INPUT
*                | INVERTING INPUT
*                | | POSITIVE POWER SUPPLY
*                | | | NEGATIVE POWER SUPPLY
*                | | |  | OUTPUT
*                | | |  | |
X4               4 5 10 9 6   AMP_UAFE
*
R1 12 13 50K
R2 12 1 50K
R3 3 7 50K
R4A 3 2 100K
R4B 3 2 100K
C1 7 8 1000P
C2 1 14 1000P
C3 13 14 1P
*
.ENDS
*
* AMP_UAFE OPERATIONAL AMPLIFIER "MACROMODEL" SUBCIRCUIT
* "E" IS ENHANCED MODEL
* ------------------------------------------------------------------------
*|(C) Copyright Texas Instruments Incorporated 2007. All rights reserved. |
*|                                                                        |
*|This Model is designed as an aid for customers of Texas Instruments.    |
*|No warranties, either expressed or implied, with respect to this Model  |
*|or its fitness for a particular purpose is claimed by Texas Instruments |
*|or the author.  The Model is licensed solely on an "as is" basis.  The  |
*|entire risk as to its quality and performance is with the customer.     |
* ------------------------------------------------------------------------
*
* CONNECTIONS:   NON-INVERTING INPUT
*                | INVERTING INPUT
*                | | POSITIVE POWER SUPPLY
*                | | | NEGATIVE POWER SUPPLY
*                | | | | OUTPUT
*                | | | | |
.SUBCKT AMP_UAFE 1 2 3 4 5
*
C1   11 12 8.938E-12
C2    6  7 15.00E-12
CSS  10 99 8.077E-12
DC    5 53 DX
DE   54  5 DX
DLP  90 91 DX
DLN  92 90 DX
DP    4  3 DX
EGND 99  0 POLY(2) (3,0) (4,0) 0 .5 .5
FB    7 99 POLY(5) VB VC VE VLP VLN 0 99.42E6 -10E6 10E6 10E6 -10E6
GA    6  0 11 12 424.1E-6
GCM   0  6 10 99 6.722E-9
ISS   3 10 DC 300.0E-6
HLIM 90  0 VLIM 1K
J1   11  2 10 JX
J2   12  1 10 JX
G11 2 4 POLY(3) (10,2) (11,2) (4,2) 0 1E-12 1E-12 1E-12
G21 1 4 POLY(3) (10,1) (12,1) (4,1) 0 1E-12 1E-12 1E-12
R2    6  9 100.0E3
RD1   4 11 2.358E3
RD2   4 12 2.358E3
RO1   8  5 75
RO2   7 99 75
*  RP    3  4 20.00E3
RSS  10 99 666.7E3
VB    9  0 DC 0
VC    3 53 DC 3.500
VE   54  4 DC 3.500
VLIM  7  8 DC 0
VLP  91  0 DC 25
VLN   0 92 DC 25
****************************
* UAF42 "E" - ENHANCEMENTS
****************************
* OUTPUT SUPPLY MIRROR
FQ3   0 20 POLY(1) VLIM 0  1
DQ1  20 21 DX
DQ2  22 20 DX
VQ1  21  0 0
VQ2  22  0 0
FQ1   3  0 POLY(1) VQ1  0.950E-3  1
FQ2   0  4 POLY(1) VQ2  0.950E-3 -1
* QUIESCIENT CURRENT
RQ    3  4  1.2E5
* DIFF INPUT CAPACITANCE
CDIF  1  2  2.0E-12
* COMMON MODE INPUT CAPACITANCE
C1CM  1  99 3.0E-12
C2CM  2  99 3.0E-12
****************************
.MODEL DX D(IS=800.0E-18)
.MODEL JX PJF(IS=5.000E-12 BETA=299.8E-6 VTO=-1)
.ENDS
*.ENDS UAF42E
*
*
*****************************************************************************
* (C) Copyright 2009 Texas Instruments Incorporated. All rights reserved.     *****************************************************************************
** This model is designed as an aid for customers of Texas Instruments.    
** TI and its licensors and suppliers make no warranties, either expressed  
** or implied, with respect to this model, including the warranties of                      
** merchantability or fitness for a particular purpose. The model is   
** provided solely on an "as is" basis. The entire risk as to its quality                                 
** and performance is with the customer         
*
*****************************************************************************
*
*  This model was developed for Texas Instruments Incorporated by:
*  Logix Consulting, Inc.
*  http://www.lgx.com. 
*
*****************************************************************************
*
* Released by: Analog eLab Design Center, Texas Instruments Inc.
* Part: OPA875
* Model Type: TINA
* Simulator: TINA-TI
* Simulator Version: 7.0.30.267 SF-TI
* OPA875  Low-Power, Wideband Voltage Feedback Operational Amplifier with Disable
* REV. A - Created 1/09/07 X-ramus2@ti.com
*
*
* NOTES:
*   1- This macromodel predicts well: DC, small-signal AC, noise,
*      , and transient performance under a wide range
*      of conditions.
*   2- This macromodel does not predict well: distortion
*      (harmonic, intermod, diff. gain & phase, ...),
*      temperature effects, board parasitics, differences
*      between package styles, and process changes
*   3- For Spice3F4 users they might need to un-comment the lines for the F 
*      function and comment out the Lines for PSpice F functions
*      and subckts. First try the present netlist then comment out lines if 
*      errors appear.
*      General form:
*      FXXXXXXX N+ N- <POLY(ND)> VN1 <VN2 ...> P0 <P1 ...> <IC=...>
*      Examples:
*      F1 12 10 VCC 1MA 1.3M
*   4- For some simulators the subckt for the F statement need to be placed 
*      inside the ends statement followed by carriage return  
*   5- Known Problems: - Current noise 4x datasheet spec
*
* |-------------------------------------------------------------|
* |  This macro model is being supplied as an aid to            |
* |  circuit designs.  While it reflects reasonably close       |
* |  similarity to the actual device in terms of performance,   |
* |  it is not suggested as a replacement for breadboarding.    |
* |  Simulation should be used as a forerunner or a supplement  |
* |  to traditional lab testing.                                |
* |                                                             |
* |  Neither this library nor any part may be copied without    |
* |  the express written consent of Texas Instruments Corp.     |
* |-------------------------------------------------------------|
*
* CONNECTIONS:
*
*               Ch 0 Input
*               |    Ch 1 Input
*               |    |     Enable Bar Pin
*               |    |     |   Ground
*               |    |     |   |   Output
*               |    |     |   |   |   Channel Select
*               |    |     |   |   |   |  Positive Supply
*               |    |     |   |   |   |  |  Negative Supply
*               |    |     |   |   |   |  |  |
.SUBCKT OPA875 Ch0 Ch1 ENbar GND OUT SEL V+ V- 

.PARAM x1 = {1/8}
.PARAM x2 = {x1*2}
.PARAM x3 = {x1*3}
.PARAM x4 = {x1*4}
.PARAM x5 = {x1*5}
.PARAM x6 = {x2*3}
.PARAM x8 = {x2*4}
.PARAM x10 = {x5*2}
.PARAM x32 = {x8*4}
.PARAM x60 = {x10*6}

C_U4_C2          $N_0001 $N_0002  8p  
R_U4_R9          $N_0007 $N_0002  25  
R_U4_R8          $N_0001 $N_0013  25  
R_U4_R10         $N_0003 $N_0013  240  
R_U4_R13         $N_0007 $N_0006  240  
R_U4_R12         $N_0007 $N_0008  240  
R_U4_R11         $N_0012 $N_0013  240  
R_U4_R15         $N_0007 $N_0009  70  
R_U4_R14         $N_0005 $N_0013  105  
R_U4_R7          V- $N_0007  10  
R_U4_R6          V+ $N_0013  10  
D_U4_D3          $N_0008 $N_0007 DX 1
D_U4_D4          $N_0006 $N_0007 DX 1
D_U4_D6          $N_0009 $N_0007 DX 1
D_U4_D1          $N_0013 $N_0003 DX 1
D_U4_D2          $N_0013 $N_0012 DX 1
D_U4_D5          $N_0013 $N_0005 DX 1
Q_U4_Q1          $N_0055 $N_0055 $N_0003 PNP8 {x5}
Q_U4_Q5          $N_0004 $N_0055 $N_0005 PNP8 {x10}
Q_U4_Q4          $N_0056 $N_0056 $N_0008 NPN8 {x5}
Q_U4_Q7          $N_0010 $N_0056 $N_0009 NPN8 {x10}
Q_U4_Q3          $N_0011 $N_0056 $N_0006 NPN8 {x5}
Q_U4_Q2          $N_0011 $N_0055 $N_0012 PNP8 {x5}
Q_U4_Q8          $N_0013 $N_0011 $N_0010 NPN8 {x32}
Q_U4_Q6          $N_0007 $N_0011 $N_0004 PNP8 {x32}
Q_U4_Q9          $N_0013 $N_0015 $N_0011 NPN8 {x2}
Q_U4_Q10         $N_0007 $N_0014 $N_0011 PNP8 {x2}
Q_U4_Q11         V- $N_0010 $N_0015 PNP8 {x60}
Q_U4_Q12         V+ $N_0004 $N_0014 NPN8 {x60}
C_U4_C1          V+ V-  8p  
R_U4_R16         OUT $N_0014  8  
R_U4_R17         $N_0015 OUT  8  
***************
R_U3_R12         V+ $N_0017  10  
R_U3_R13         V- $N_0016  10  
Q_U3_Q1          $N_0106 $N_0106 $N_0018 PNP8 {x2}
Q_U3_Q2          $N_0132 $N_0106 $N_0019 PNP8 {x6}
Q_U3_Q8          $N_0114 $N_0114 $N_0020 NPN8 {x2}
Q_U3_Q7          $N_0130 $N_0114 $N_0021 NPN8 {x6}
R_U3_R14         $N_0018 $N_0017  660  
R_U3_R15         $N_0019 $N_0017  220  
R_U3_R16         $N_0016 $N_0020  660  
R_U3_R17         $N_0016 $N_0021  220  
*
R_U3_R18         $N_0132 $N_0026  100  
D_U3_D1          $N_0025 $N_0026  DX 1
Q_U3_Q16         $N_0024 $N_0024 $N_0025 NPN8 {x2}
Q_U3_Q15         $N_0017  GND    $N_0024 NPN8 {x2}
R_U3_R19         $N_0028 $N_0130  100  
D_U3_D2          $N_0027 $N_0028  DX 1
Q_U3_Q17         $N_0029 $N_0029 $N_0027 PNP8 {x2}
Q_U3_Q18         $N_0016  GND    $N_0029 PNP8 {x2}
C_U3_C1          $N_0016 $N_0017  6.5p  
*
Q_U3_Q10         $N_0017 $N_0017 $N_0023 NPN8 {x4}
Q_U3_Q5          $N_0023 $N_0034 $N_0033 NPN8 {x4*0.95}
Q_U3_Q6          $N_0130 $N_0130 $N_0033 PNP8 {x4*0.95}
Q_U3_Q14         $N_0056 $N_0130 $N_0030 PNP8 {x4*0.95}
Q_U3_Q12         $N_0049 $N_0049 $N_0030 NPN8 {x4*0.95}
*
Q_U3_Q9          $N_0016 $N_0016 $N_0022 PNP8 {x4}
Q_U3_Q4          $N_0022 $N_0034 $N_0032 PNP8 {x4*0.95}
Q_U3_Q3          $N_0132 $N_0132 $N_0032 NPN8 {x4*0.95}
Q_U3_Q11         $N_0055 $N_0132 $N_0031 NPN8 {x4*0.95}
Q_U3_Q13         $N_0049 $N_0049 $N_0031 PNP8 {x4*0.95}
*
R_U3_R20         $N_0034 Ch1  300  
***************
R_U2_R12         V+ $N_0036  10  
R_U2_R13         V- $N_0035  10  
Q_U2_Q8          $N_0112 $N_0112 $N_0039 NPN8 {x2}
Q_U2_Q7          $N_0129 $N_0112 $N_0040 NPN8 {x6}
Q_U2_Q1          $N_0111 $N_0111 $N_0037 PNP8 {x2}
Q_U2_Q2          $N_0133 $N_0111 $N_0038 PNP8 {x6}
R_U2_R16         $N_0035 $N_0039  660  
R_U2_R17         $N_0035 $N_0040  220  
R_U2_R14         $N_0037 $N_0036  660  
R_U2_R15         $N_0038 $N_0036  220  
Q_U2_Q9          $N_0035 $N_0035 $N_0041 PNP8 {x4}
Q_U2_Q4          $N_0041 $N_0054 $N_0052 PNP8 {x4*0.95}
Q_U2_Q3          $N_0133 $N_0133 $N_0052 NPN8 {x4*0.95}
Q_U2_Q5          $N_0042 $N_0054 $N_0053 NPN8 {x4*0.95}
Q_U2_Q10         $N_0036 $N_0036 $N_0042 NPN8 {x4}
Q_U2_Q15         $N_0036 GND     $N_0043 NPN8 {x2}
Q_U2_Q16         $N_0043 $N_0043 $N_0044 NPN8 {x2}
D_U2_D1          $N_0044 $N_0045  DX 1
R_U2_R18         $N_0133 $N_0045  100  
*
Q_U2_Q13         $N_0049 $N_0049 $N_0051 PNP8 {x4*0.95}
Q_U2_Q12         $N_0049 $N_0049 $N_0050 NPN8 {x4*0.95}
Q_U2_Q11         $N_0055 $N_0133 $N_0051 NPN8 {x4*0.95}
Q_U2_Q14         $N_0056 $N_0129 $N_0050 PNP8 {x4*0.95}
*
Q_U2_Q6          $N_0129 $N_0129 $N_0053 PNP8 {x4*0.95}
Q_U2_Q17         $N_0048 $N_0048 $N_0046 PNP8 {x2}
Q_U2_Q18         $N_0035 GND     $N_0048 PNP8 {x2}
R_U2_R19         $N_0047 $N_0129  100  
D_U2_D2          $N_0046 $N_0047  DX 1
R_U2_R20         $N_0054 Ch0  300  
C_U2_C1          $N_0035 $N_0036  6.5p  
***************
***************
C_U1_C1          $N_0059 $N_0080  5p  